32
1   
N   -2.917700    0.976500    2.127100    X
C   -4.902400    4.541600    1.133700    PLG
C   -5.572200    3.544200    1.842400    X
C   -4.923200    2.346600    2.157300    X
C   -3.578900    2.134900    1.776600    X
C   -2.924000    3.151800    1.046500    X
C   -3.581600    4.345000    0.730900    X
H   -6.596700    3.697500    2.158100    X
H   -5.459400    1.600900    2.732500    X
H   -1.904800    3.019900    0.707100    X
H   -3.062100    5.122000    0.177500    X
C   -4.994600    -2.665900    2.205900    1
C   -5.201600    -1.771900    1.153700    X
C   -4.514800    -0.556400    1.125100    X
C   -3.597500    -0.221100    2.150100    X
C   -3.402800    -1.142400    3.205400    X
C   -4.098600    -2.353200    3.229800    X
H   -5.903000    -2.016300    0.364800    X
H   -4.667200    0.104000    0.278700    X
H   -2.737600    -0.904900    4.028200    X
H   -3.948600    -3.048100    4.047300    X
C   1.158000    1.132900    3.139800    X
C   0.652900    0.039400    2.432200    X
C   -0.705500    -0.026100    2.113400    X
C   -1.584500    1.016500    2.481400    X
C   -1.054400    2.110600    3.207700    X
C   0.304400    2.165300    3.532500    X
H   2.214900    1.181900    3.375200    X
H   1.321000    -0.752400    2.115800    X
H   -1.063600    -0.872500    1.541200    X
H   -1.697300    2.916500    3.537300    X
H   0.702400    3.016600    4.075700    X
