9
1   1   
C   -0.739100    2.288200    2.141400    1
C   -1.441400    3.504600    2.141400    X
C   -2.845900    3.504600    2.141400    X
C   -3.548100    2.288200    2.141400    X
C   -2.845900    1.071800    2.141400    2
H   -0.889600    4.460200    2.141400    X
H   -3.397600    4.460200    2.141400    X
H   -4.651500    2.288200    2.141400    X
N   -1.442200    1.073300    2.141400    X
