28

C   4.689600    -0.793800    4.477300    PLG
C   3.952700    0.406000    4.489700    X
C   2.549100    0.377800    4.498300    X
C   4.029600    -2.033000    4.473500    X
H   4.471400    1.355800    4.492600    X
H   1.985100    1.301000    4.507800    X
H   4.594200    -2.956200    4.464100    X
C   1.910100    -0.865500    4.494400    X
C   2.631300    -2.048400    4.482300    X
C   1.709400    -3.243100    4.480600    X
C   1.879500    -4.077300    3.202600    X
C   1.895800    -4.093500    5.745500    X
C   0.382700    -2.524300    4.493600    X
C   0.562900    -1.150600    4.501200    X
C   -0.524900    -0.272800    4.513700    X
C   -1.819600    -0.815600    4.518500    X
C   -2.007400    -2.211100    4.510900    X
C   -0.902000    -3.076700    4.498300    X
H   -0.383100    0.799900    4.519700    X
H   -2.678600    -0.157300    4.528200    X
H   -3.009700    -2.619100    4.514700    X
H   -1.044300    -4.149400    4.492500    X
H   1.148600    -4.915200    5.772500    X
H   2.912000    -4.541900    5.763600    X
H   1.768600    -3.471100    6.658000    X
H   1.132000    -4.898600    3.174600    X
H   1.740900    -3.443300    2.299800    X
H   2.895400    -4.525500    3.165800    X
