33

N   -1.386200    0.193200    2.533700    X
C   2.688000    0.302100    1.525900    X
C   1.829800    1.280100    1.034000    X
C   0.463100    1.220000    1.319600    X
C   -0.071600    0.172800    2.116700    X
C   0.809400    -0.848100    2.545900    X
C   2.173800    -0.768900    2.263500    X
H   3.753800    0.380300    1.348200    X
H   2.209900    2.098000    0.433900    X
H   -0.174000    1.998100    0.920200    X
H   0.457800    -1.679500    3.146400    X
H   2.843800    -1.535000    2.636000    X
C   -3.453100    -3.429300    2.948300    PLG
C   -2.741500    -3.163200    1.773300    X
C   -2.053200    -1.955000    1.633600    X
C   -2.088600    -0.981900    2.659500    X
C   -2.851600    -1.242100    3.812000    X
C   -3.506700    -2.470500    3.966500    X
H   -2.716200    -3.900300    0.978900    X
H   -1.487100    -1.776100    0.720300    X
H   -2.893100    -0.511200    4.620200    X
H   -4.045800    -2.676100    4.885800    X
C   -3.245500    3.937800    2.820300    X
C   -3.945400    2.847700    2.296300    X
C   -3.356300    1.578100    2.263600    X
C   -2.032100    1.396000    2.716700    X
C   -1.358400    2.499700    3.295600    X
C   -1.961700    3.761000    3.337300    X
H   -3.699100    4.917600    2.814800    X
H   -4.944100    2.984500    1.901900    X
H   -3.898700    0.759100    1.802900    X
H   -0.352400    2.395400    3.698500    X
H   -1.431500    4.595500    3.771600    X
