10

C   1.951000    -1.797900    1.553700    X
C   1.263700    -0.581100    1.562200    X
C   -0.133100    -0.586100    1.564700    PLG
C   -0.822700    -1.800700    1.558800    X
C   -0.099500    -2.996600    1.550300    X
N   1.260700    -2.970200    1.548000    X
H   3.032800    -1.810200    1.551600    X
H   1.807600    0.354700    1.566800    X
H   -1.904900    -1.815600    1.560600    X
H   -0.619400    -3.945300    1.545600    X
