17

C   10.217300    0.011900    3.123000    X
C   9.508400    1.216200    3.105000    X
C   8.110500    1.210400    3.095700    X
C   9.533600    -1.207400    3.131700    PLG
H   11.299600    0.023400    3.130100    X
H   10.043900    2.156800    3.098300    X
H   7.577600    2.153700    3.081700    X
C   8.130200    -1.227900    3.122500    X
C   7.411400    -0.006600    3.104300    X
C   6.008000    -0.027100    3.095000    X
C   5.324300    -1.246400    3.103800    X
C   6.033200    -2.450800    3.121800    X
C   7.431100    -2.444900    3.131200    X
H   5.442000    0.896700    3.081000    X
H   4.242000    -1.258000    3.096500    X
H   5.497700    -3.391400    3.128400    X
H   7.964000    -3.388200    3.145100    X
