19
1   
C   -4.778900    2.256000    2.409200    X
C   -5.481100    1.039600    2.409200    X
C   -4.778900    -0.176800    2.409200    PLG
C   -3.374300    -0.176800    2.409200    X
H   -5.330600    3.211600    2.409200    X
H   -6.584500    1.039600    2.409200    X
H   -2.822600    -1.132400    2.409200    X
C   -2.727800    1.051300    2.409200    X
C   -3.384900    2.216400    2.409200    X
O   -2.470200    3.408100    2.409100    X
C   -1.186200    2.736000    2.409100    X
C   -1.360600    1.342300    2.409200    X
C   -0.240800    0.494500    2.409200    X
C   1.053300    1.040300    2.409200    1
C   1.227700    2.434000    2.409100    X
C   0.107900    3.281900    2.409100    X
H   -0.377900    -0.600400    2.409300    X
H   2.244400    2.862700    2.409100    X
H   0.244900    4.376800    2.409000    X
