10
1   
C   -3.043700    1.816000    2.444700    X
C   -3.749900    3.023700    2.456100    X
C   -5.148900    3.016100    2.460200    1
C   -5.841800    1.800700    2.453100    X
C   -5.135700    0.593000    2.441700    X
C   -3.736700    0.600600    2.437600    PLG
H   -1.961400    1.821900    2.441500    X
H   -3.213800    3.964000    2.461600    X
H   -6.924100    1.794800    2.456300    X
H   -5.671700    -0.347300    2.436200    X
