41
1   
C   -4.695800    1.747900    2.399100    X
C   -5.336800    0.500100    2.395100    PLG
C   -4.582700    -0.686500    2.386100    X
C   -3.182200    -0.632600    2.395700    X
H   -5.280600    2.660000    2.391800    X
H   -5.084100    -1.645700    2.368000    X
H   -2.602600    -1.546800    2.380800    X
C   -2.561000    0.622600    2.418300    X
C   -3.288900    1.798500    2.412100    X
C   -2.372500    3.034100    2.408700    X
C   -1.032200    2.289800    2.396800    X
C   -1.222500    0.912700    2.429700    X
C   -0.150300    0.016100    2.456300    X
C   1.151400    0.528200    2.421100    X
C   1.364900    1.914900    2.347000    1
C   0.278400    2.802500    2.332900    X
H   -0.306500    -1.054300    2.514000    X
H   1.996700    -0.147500    2.442600    X
H   0.489700    3.856400    2.261900    X
C   -2.882000    5.421000    6.084900    X
C   -1.836900    5.696000    5.207700    X
C   -1.652100    4.915700    4.063800    X
C   -2.542500    3.864200    3.725700    X
C   -3.556600    3.573600    4.684300    X
C   -3.730300    4.350100    5.832100    X
H   -3.017500    6.018300    6.976000    X
H   -1.145700    6.501600    5.421200    X
H   -0.773800    5.138100    3.497300    X
H   -4.219000    2.733000    4.598900    X
H   -4.520900    4.109600    6.535800    X
C   -2.882600    5.418900    -1.272000    X
C   -1.912000    5.765400    -0.340800    X
C   -1.741700    5.004500    0.819700    X
C   -2.554100    3.873600    1.099500    X
C   -3.496800    3.516300    0.092200    X
C   -3.666200    4.289400    -1.061700    X
H   -3.002200    6.009600    -2.171700    X
H   -1.278900    6.626200    -0.523200    X
H   -0.945400    5.323500    1.454900    X
H   -4.103800    2.629600    0.149100    X
H   -4.403000    4.002800    -1.802300    X
