24
1                     #frag5
C         -3.87370        1.90000        2.47110   X 
C         -4.57070        0.68820        2.46670   X
C         -3.87410       -0.52350        2.46160   X
C         -2.47620       -0.53100        2.46070   X
H         -4.42680        2.83110        2.47500   X
H         -5.65300        0.68820        2.46730   X
H         -4.41880       -1.45880        2.45830   X
H         -1.94990       -1.47750        2.45660   X
C         -1.76530        0.67940        2.46510   X
C         -2.47000        1.90520        2.47030   X
N         -1.77680        3.07890        2.47450   X
N         -0.40220        0.68780        2.46440   X
C          0.29090        1.86150        2.46860   X
C         -0.41370        3.08730        2.47370   X
C          0.29710        4.29770        2.47810   X
C          1.69500        4.29020        2.47730   X
C          2.39160        3.07850        2.47220   X
C          1.69470        1.86670        2.46790   X
H         -0.22920        5.24420        2.48200   X
H          2.23970        5.22550        2.48080   X
H          3.47400        3.07850        2.47170   X
H          2.24780        0.93560        2.46400   X
H         -2.29840        3.98610        2.47840   PLG
H          0.11930       -0.21940        2.46060   1
