16
1    #frag7
N         -3.77110        2.57740        2.38220   X
C         -4.46900        1.40930        2.39470   X
C         -3.79230        0.18510        2.40830   X
C         -2.39510        0.17090        2.40900   X
H         -5.55050        1.43000        2.39410   X
H         -4.34700       -0.74430        2.41820   X
H         -1.86470       -0.77320        2.41950   PLG
C         -2.41070        2.59160        2.38250   X
C         -1.69230        1.37830        2.39600   X
N         -0.33200        1.39250        2.39640   X
C          0.36590        2.56060        2.38380   X
C         -0.31070        3.78480        2.37020   X
C         -1.70790        3.79900        2.36950   X
H          1.44750        2.53990        2.38450   X
H          0.24400        4.71410        2.36020   X
H         -2.23820        4.74320        2.35900   1
