72
Structure1
C          0.21850        0.93280        1.36080
C         -0.36700        2.16730        1.73240
C         -1.66240        2.13090        2.29480
C         -2.31940        0.92250        2.50300
C         -1.69090       -0.28540        2.21140
C         -0.39090       -0.31170        1.66000
H          1.12900        0.93850        0.78160
H         -2.15570        3.02410        2.65220
H         -3.30270        0.91840        2.95640
H         -2.21230       -1.18390        2.50380
C          1.75780        5.83890        1.67220
C          0.35050        5.86210        1.59760
C         -0.33140        4.63000        1.56430
C          0.35030        3.39790        1.62320
C          1.76380        3.42420        1.63240
C          2.49400        4.63320        1.66620
H          2.27240        6.77050        1.84860
H         -1.39900        4.62730        1.40070
H          2.29760        2.49250        1.64050
C          1.75530       -3.96940        1.39820
C          0.34590       -4.00460        1.36630
C         -0.35270       -2.77800        1.37960
C          0.31980       -1.53920        1.48390
C          1.73160       -1.55690        1.50670
C          2.46840       -2.75520        1.45290
H          2.30050       -4.89380        1.27770
H         -1.43020       -2.79140        1.34490
H          2.26780       -0.64160        1.70610
C          6.72160       -2.69000        1.53210
C          6.01670       -1.60440        1.01740
C          4.61890       -1.62050        0.99080
C          3.89300       -2.73530        1.47870
C          4.63420       -3.82190        2.00160
C          6.03150       -3.79480        2.02740
H          7.80460       -2.67750        1.54270
H          6.55460       -0.74840        0.63290
H          4.11930       -0.77770        0.53320
H          4.14440       -4.68130        2.43890
H          6.58190       -4.62970        2.44300
C         -1.77570       -7.68800        1.42490
C         -2.33260       -6.57290        0.80090
C         -1.62950       -5.36630        0.75770
C         -0.34950       -5.24690        1.35010
C          0.20470       -6.40010        1.95890
C         -0.50790       -7.60330        1.99670
H         -2.32590       -8.61960        1.46690
H         -3.30980       -6.64430        0.34360
H         -2.08030       -4.54560        0.21650
H          1.15780       -6.36820        2.46960
H         -0.08320       -8.46780        2.49170
C          6.76160        4.67840        1.87020
C          6.05880        3.53440        2.23650
C          4.66220        3.51380        2.17840
C          3.92610        4.64460        1.73370
C          4.67390        5.79200        1.35850
C          6.07040        5.80610        1.43440
H          7.84330        4.68940        1.91970
H          6.59820        2.66080        2.58000
H          4.18440        2.61580        2.53590
H          4.20360        6.67770        0.95710
H          6.62070        6.69240        1.14050
C         -1.78900        9.54010        1.47380
C         -2.39860        8.39580        1.98330
C         -1.69680        7.18750        2.03390
C         -0.36200        7.09600        1.56740
C          0.23730        8.27750        1.06250
C         -0.47160        9.48190        1.02090
H         -2.33530       10.47420        1.43320
H         -3.41520        8.44570        2.35230
H         -2.19670        6.34280        2.48810
H          1.23500        8.27410        0.64470
H         -0.00160       10.37210        0.62540
