16
2 #seed2
C         -7.35440        2.33070        2.14140   X
C         -8.05660        1.11430        2.14140   X
C         -7.35440       -0.10210        2.14140   X
C         -5.94980       -0.10210        2.14140   X
H         -7.90610        3.28630        2.14140   X
H         -9.16000        1.11430        2.14140   X
H         -7.90610       -1.05760        2.14140   X
H         -5.39810       -1.05770        2.14140   X
C         -5.94990        2.33070        2.14140   X
C         -5.24750        1.11430        2.14140   X
C         -3.14090        2.33080        2.14140   X
C         -5.24770        3.54710        2.14140   X
H         -2.03750        2.33090        2.14140   1
H         -5.79940        4.50270        2.14140   1
N         -3.84390        1.11590        2.14140   X
N         -3.84390        3.54570        2.14140   X
