181
3(6-1(6-1(23-1)))(16-2(10-1(25-1)))
C 	 -4.021038	 2.131606	 2.831902	
C 	 -6.050220	 1.005086	 2.969957	
C 	 -4.056054	-0.165580	 3.235215	
N 	 -5.377544	 2.177153	 2.796108	
N 	 -5.413762	-0.179231	 3.196394	
N 	 -3.339977	 0.973204	 3.045435	
C 	 -3.058452	 5.784720	 2.506802	
C 	 -3.818283	 4.620236	 2.643065	
C 	 -3.221197	 3.349717	 2.643817	
C 	 -1.833100	 3.200425	 2.489001	
H 	 -3.521054	 6.766238	 2.505739	
H 	 -4.906669	 4.694560	 2.756868	
H 	 -1.370515	 2.209235	 2.473304	
C 	 -1.069119	 4.341783	 2.368435	
C 	 -1.690142	 5.619771	 2.379393	
O 	 -0.760070	 6.643544	 2.253020	
C 	  0.478131	 6.005103	 2.157998	
C 	  0.345616	 4.595303	 2.227424	
C 	  1.464037	 3.789850	 2.169004	
C 	  2.722780	 4.388435	 1.989839	
C 	  2.818220	 5.787761	 1.908276	
C 	  1.702637	 6.625751	 2.014057	
H 	  1.350934	 2.710947	 2.273304	
H 	  3.794008	 6.252290	 1.754730	
H 	  1.802052	 7.706825	 1.987353	
C 	  6.330402	 3.231520	 2.228944	
C 	  5.195414	 4.043375	 2.167397	
C 	  3.911148	 3.524225	 1.931910	
C 	  3.748479	 2.146495	 1.701692	
H 	  7.318140	 3.643760	 2.408985	
H 	  5.321843	 5.115074	 2.330131	
H 	  2.776264	 1.720790	 1.455128	
C 	  4.846443	 1.315519	 1.811274	
C 	  6.123672	 1.874600	 2.078350	
O 	  7.100668	 0.896195	 2.219958	
C 	  6.420491	-0.310998	 2.098830	
C 	  5.042516	-0.118771	 1.815249	
C 	  4.214004	-1.216976	 1.682835	
C 	  4.756686	-2.495071	 1.888321	
C 	  6.120105	-2.649173	 2.187739	
C 	  6.985860	-1.557734	 2.282230	
H 	  3.163452	-1.086068	 1.427530	
H 	  6.518703	-3.649299	 2.367711	
H 	  8.040724	-1.682766	 2.504085	
C 	  2.165315	-5.864875	 1.530556	
C 	  3.521725	-5.993189	 1.223842	
C 	  4.369342	-4.896607	 1.343812	
C 	  3.876755	-3.666009	 1.793294	
C 	  2.522705	-3.557644	 2.135451	
C 	  1.667796	-4.644948	 1.989992	
H 	  3.910433	-6.950271	 0.878483	
H 	  5.418522	-5.001930	 1.072508	
H 	  2.127526	-2.617710	 2.518616	
H 	  0.608928	-4.546200	 2.232098	
C 	 -0.378354	-9.219644	 0.921112	
C 	 -0.421943	-8.139978	 0.040015	
C 	  0.396086	-7.033312	 0.252192	
C 	  1.269746	-7.013040	 1.342141	
C 	  1.310026	-8.090555	 2.228750	
C 	  0.488756	-9.195234	 2.012584	
H 	 -1.021690	-10.080802	 0.756010	
H 	 -1.091779	-8.163378	-0.817717	
H 	  0.362537	-6.185238	-0.429679	
H 	  1.979696	-8.061322	 3.086464	
H 	  0.529226	-10.042461	 2.693818	
C 	 -1.122607	-2.450503	 3.844511	
C 	 -1.921492	-1.315122	 3.730635	
C 	 -3.299473	-1.406428	 3.458242	
C 	 -3.943780	-2.648896	 3.356351	
H 	 -0.055909	-2.388894	 4.036466	
H 	 -1.465183	-0.324464	 3.848084	
H 	 -5.022618	-2.703440	 3.184310	
C 	 -3.168877	-3.789200	 3.470761	
C 	 -1.768915	-3.663234	 3.690042	
O 	 -1.129003	-4.890542	 3.707111	
C 	 -2.132668	-5.827271	 3.473815	
C 	 -3.407579	-5.213721	 3.355841	
C 	 -4.518452	-6.009335	 3.154339	
C 	 -4.334238	-7.394119	 2.998720	
C 	 -3.052357	-7.958976	 3.073515	
C 	 -1.923318	-7.183835	 3.344363	
H 	 -5.510998	-5.563174	 3.121998	
H 	 -2.921987	-9.028547	 2.900717	
H 	 -0.932066	-7.625036	 3.427324	
C 	 -6.684573	-10.369714	 3.054071	
C 	 -5.562701	-9.557166	 3.241385	
C 	 -5.505452	-8.242149	 2.752350	
C 	 -6.592556	-7.696509	 2.053851	
H 	 -6.712709	-11.394236	 3.410657	
H 	 -4.716538	-9.955094	 3.804887	
H 	 -6.549168	-6.695431	 1.628893	
C 	 -7.737789	-8.456274	 1.928319	
C 	 -7.762048	-9.790166	 2.411909	
O 	 -9.002161	-10.388768	 2.209751	
C 	 -9.803218	-9.388171	 1.664881	
C 	 -9.076372	-8.186662	 1.458028	
C 	 -9.725339	-7.056211	 1.002798	
C 	 -11.110318	-7.130084	 0.796412	
C 	 -11.802483	-8.336117	 0.976386	
C 	 -11.156638	-9.498642	 1.408910	
H 	 -9.179110	-6.129699	 0.830721	
H 	 -12.879321	-8.365393	 0.802425	
H 	 -11.693795	-10.429734	 1.555348	
C 	 -13.153701	-3.512300	-0.151051	
C 	 -13.409217	-4.665805	-0.897950	
C 	 -12.748026	-5.854459	-0.597045	
C 	 -11.820680	-5.894986	 0.447197	
C 	 -11.543725	-4.731549	 1.175938	
C 	 -12.202900	-3.547565	 0.873099	
H 	 -14.132197	-4.636375	-1.710310	
H 	 -12.945925	-6.753698	-1.179046	
H 	 -10.816277	-4.753580	 1.988122	
H 	 -11.987661	-2.639152	 1.433195	
C 	 -15.239856	 3.505121	 0.221604	
C 	 -14.285702	 2.662101	-0.192880	
C 	 -13.826035	 1.459944	 0.486088	
C 	 -13.744495	 1.318225	 1.818173	
C 	 -14.187658	 2.317784	 2.873483	
C 	 -15.633061	 2.657350	 2.653784	
H 	 -15.441935	 4.441828	-0.300633	
H 	 -13.713910	 2.893386	-1.100007	
H 	 -13.402956	 0.691291	-0.174683	
H 	 -14.154566	 1.836049	 3.903457	
H 	 -16.257667	 1.880924	 3.138637	
N 	 -10.546993	 3.216096	 2.975301	
C 	 -11.753056	 2.666524	 2.862138	
N 	 -11.638623	 1.235420	 2.731377	
C 	 -9.602442	 2.178962	 2.902840	
C 	 -10.283850	 0.921384	 2.747951	
C 	 -9.578659	-0.282138	 2.660150	
C 	 -8.200425	-0.219516	 2.756825	
C 	 -7.519012	 1.013273	 2.899531	
C 	 -8.210142	 2.222594	 2.964080	
H 	 -10.089821	-1.228103	 2.518972	
H 	 -7.612022	-1.145084	 2.729126	
H 	 -7.688653	 3.180998	 3.053886	
C 	 -14.803538	-2.047844	 1.865445	
C 	 -14.061768	-1.680009	 2.915029	
C 	 -12.876267	-0.836646	 2.933337	
C 	 -12.772942	 0.413295	 2.465301	
C 	 -13.887270	-2.276982	-0.429262	
C 	 -14.620394	-1.624903	 0.480335	
H 	 -15.651818	-2.729295	 2.002235	
H 	 -14.313767	-2.061411	 3.916891	
H 	 -12.027838	-1.283317	 3.472709	
H 	 -13.809031	-1.910796	-1.454704	
H 	 -15.188879	-0.724749	 0.217784	
N 	 -16.533244	 6.381026	 3.015720	
C 	 -13.071419	 3.329350	 2.880776	
C 	 -13.129524	 4.672325	 2.919694	
C 	 -14.258852	 5.562804	 3.003792	
C 	 -15.579576	 5.314068	 2.865452	
C 	 -16.262425	 4.031782	 2.617027	
C 	 -16.143218	 3.202934	 1.338925	
H 	 -12.161072	 5.215886	 2.918305	
H 	 -13.953297	 6.598577	 3.235110	
H 	 -17.300938	 4.032698	 3.020702	
H 	 -17.096677	 2.794145	 0.955902	
C 	 -15.716892	10.426794	 2.215721	
C 	 -15.151215	 9.425789	 1.416130	
C 	 -15.394590	 8.087868	 1.687426	
C 	 -16.226489	 7.729376	 2.766083	
C 	 -16.815969	 8.744130	 3.548306	
C 	 -16.552296	10.077999	 3.283649	
H 	 -14.516674	 9.708940	 0.574477	
H 	 -14.954578	 7.315629	 1.060373	
H 	 -17.479273	 8.488115	 4.372228	
H 	 -16.995234	10.855203	 3.911334	
C 	 -19.669207	 5.516678	 5.691997	
C 	 -19.953495	 5.957184	 4.399175	
C 	 -18.919405	 6.272022	 3.522431	
C 	 -17.595856	 6.119455	 3.951717	
C 	 -17.302860	 5.673680	 5.246087	
C 	 -18.348036	 5.373471	 6.113706	
H 	 -20.481578	 5.290029	 6.378028	
H 	 -20.989103	 6.047642	 4.070532	
H 	 -19.128218	 6.631855	 2.514965	
H 	 -16.266992	 5.563684	 5.564311	
H 	 -18.129720	 5.022583	 7.122159	
N 	 -15.240049	12.910785	 1.730675	
C 	 -15.452118	11.792005	 1.943244	
