82
2(6-1(15-1(32-1)))(8-2(5-1(27-1)))
C 	 -0.940078	 2.447615	 2.054124	
C 	 -1.625811	 3.670592	 2.171814	
C 	 -2.994381	 3.694004	 1.918547	
C 	 -3.665286	 2.511040	 1.625236	
C 	 -2.953398	 1.296019	 1.685848	
H 	 -1.102683	 4.577831	 2.458685	
H 	 -3.540263	 4.637747	 1.954059	
H 	 -4.719712	 2.526510	 1.367225	
N 	 -1.615716	 1.292045	 1.864645	
C 	  2.714597	 3.448310	 2.248401	
C 	  1.324470	 3.503521	 2.139421	
C 	  0.530973	 2.344428	 2.128071	
C 	  1.129537	 1.071421	 2.158501	
H 	  3.328270	 4.343072	 2.282042	
H 	  0.860476	 4.486861	 2.054494	
H 	  0.510136	 0.167055	 2.129347	
C 	  2.507705	 0.988510	 2.232409	
C 	  3.269091	 2.186009	 2.307732	
O 	  4.628868	 1.939522	 2.438446	
C 	  4.746227	 0.555464	 2.437498	
C 	  3.485976	-0.080934	 2.283886	
C 	  3.442941	-1.459897	 2.199094	
C 	  4.645102	-2.178841	 2.310363	
C 	  5.866724	-1.516313	 2.517381	
C 	  5.941863	-0.123119	 2.565636	
H 	  2.490216	-1.971699	 2.054391	
H 	  6.779847	-2.100157	 2.648024	
H 	  6.882141	 0.402596	 2.693680	
N 	  4.517997	-6.426020	 1.641672	
C 	  5.549709	-5.694266	 1.262603	
C 	  5.639151	-4.291772	 1.492306	
C 	  4.629937	-3.637037	 2.163604	
H 	  6.355500	-6.219564	 0.731477	
H 	  6.504014	-3.755242	 1.110030	
C 	  3.497363	-5.813729	 2.324832	
C 	  3.530270	-4.427622	 2.643017	
N 	  2.526988	-3.840638	 3.372413	
C 	  1.485153	-4.565591	 3.731622	
C 	  1.338737	-5.942822	 3.400144	
C 	  2.341670	-6.579542	 2.710883	
H 	  0.710478	-4.036817	 4.306495	
H 	  0.434842	-6.464570	 3.704598	
C 	  2.260009	-8.010803	 2.332967	
H 	  2.114347	-8.124810	 1.244409	
H 	  3.209425	-8.530354	 2.550001	
H 	  1.465256	-8.566747	 2.843922	
C 	 -5.003119	-0.046528	 1.896802	
C 	 -5.691088	-1.270039	 2.029422	
C 	 -5.004799	-2.464254	 2.077684	
C 	 -3.645355	-0.010555	 1.655949	
H 	 -5.573725	 0.874756	 2.005588	
H 	 -6.779589	-1.248976	 2.100425	
C 	 -2.940618	-1.249779	 1.526007	
C 	 -3.581552	-2.453474	 1.918755	
C 	 -2.765999	-3.598809	 2.152192	
C 	 -1.439455	-3.605155	 1.808277	
C 	 -0.867278	-2.474039	 1.175559	
C 	 -1.604906	-1.326982	 1.035064	
H 	 -3.211695	-4.462696	 2.645894	
H 	 -0.807510	-4.470649	 2.005207	
H 	  0.162630	-2.527785	 0.820403	
H 	 -1.170538	-0.452311	 0.537833	
C 	 -5.961605	-6.107401	 1.950113	
C 	 -5.348251	-4.891350	 1.638303	
C 	 -5.764722	-3.710199	 2.259117	
C 	 -6.918457	-3.738912	 3.056082	
C 	 -7.638706	-4.920786	 3.211760	
C 	 -7.149497	-6.113143	 2.685889	
H 	 -4.532460	-4.874665	 0.914046	
H 	 -7.257035	-2.835617	 3.562333	
H 	 -8.578432	-4.926205	 3.762737	
H 	 -7.677226	-7.050201	 2.859786	
C 	 -3.294128	-8.721605	 1.731316	
C 	 -3.902377	-7.462942	 1.778030	
C 	 -5.296230	-7.383690	 1.668421	
C 	 -6.017701	-8.560076	 1.444043	
C 	 -5.326650	-9.777640	 1.421737	
N 	 -3.992477	-9.862525	 1.579038	
H 	 -2.209728	-8.840646	 1.832942	
H 	 -3.303913	-6.566321	 1.922953	
H 	 -7.095195	-8.535943	 1.305517	
H 	 -5.846702	-10.733255	 1.289089	
