87
1(5-1(5-1(27-1)))(8-2(8-1(31-1)))
C 	 -7.404256	 2.015965	 1.097951	
C 	 -7.934291	 0.794359	 0.770303	
C 	 -7.148512	-0.382668	 0.861927	
C 	 -5.846428	-0.332227	 1.284556	
H 	 -8.001538	 2.927200	 1.045142	
H 	 -8.965063	 0.710805	 0.435023	
H 	 -7.599084	-1.334800	 0.586073	
H 	 -5.227523	-1.224072	 1.381574	
C 	 -6.055244	 2.107186	 1.509601	
C 	 -5.269187	 0.931492	 1.595004	
C 	 -3.391972	 2.190488	 2.157629	
C 	 -5.393460	 3.333902	 1.846652	
N 	 -3.941764	 0.996774	 1.934212	
N 	 -4.106648	 3.379308	 2.145084	
C 	  0.101409	 3.600169	 2.384246	
C 	 -1.295850	 3.521665	 2.402192	
C 	 -1.934757	 2.278044	 2.352536	
C 	 -1.190546	 1.094904	 2.383999	
C 	  0.197410	 1.164102	 2.373218	
C 	  0.830190	 2.401927	 2.348293	
H 	 -1.915439	 4.424835	 2.441563	
H 	 -1.701789	 0.128636	 2.398596	
H 	  0.787654	 0.250750	 2.364270	
H 	  1.917797	 2.424853	 2.293245	
C 	  0.824081	 7.323097	 2.176340	
C 	  0.138155	 6.104786	 2.259337	
C 	  0.818315	 4.885978	 2.356583	
C 	  2.219231	 4.914890	 2.399850	
C 	  2.914599	 6.112463	 2.281968	
C 	  2.223752	 7.312541	 2.157838	
H 	 -0.954095	 6.104602	 2.248996	
H 	  2.788970	 3.996025	 2.526502	
H 	  4.003287	 6.111432	 2.289606	
H 	  2.787801	 8.237940	 2.050070	
C 	 -1.961105	 9.872088	 2.068167	
C 	 -1.306058	 8.635729	 2.092121	
C 	  0.093284	 8.599002	 2.127708	
C 	  0.771156	 9.826564	 2.133977	
C 	  0.039232	11.018209	 2.101316	
N 	 -1.306437	11.047386	 2.071301	
H 	 -3.054873	 9.936196	 2.046903	
H 	 -1.895499	 7.719809	 2.086601	
H 	  1.856801	 9.873473	 2.168017	
H 	  0.535285	11.995611	 2.100546	
C 	 -5.970634	 5.514122	 0.864300	
C 	 -6.668511	 6.739784	 0.902032	
C 	 -7.516411	 7.024216	 1.947405	
C 	 -6.146992	 4.598675	 1.873297	
H 	 -5.295433	 5.310307	 0.031178	
H 	 -6.518076	 7.458978	 0.094466	
C 	 -7.040880	 4.847376	 2.954060	
C 	 -7.732123	 6.079165	 2.996462	
C 	 -8.616578	 6.329523	 4.083759	
C 	 -8.805817	 5.394224	 5.067015	
C 	 -8.121021	 4.154233	 5.014013	
C 	 -7.256943	 3.890286	 3.984677	
H 	 -9.143512	 7.283934	 4.114965	
H 	 -9.478175	 5.585055	 5.902851	
H 	 -8.290632	 3.423160	 5.803443	
H 	 -6.719798	 2.943542	 3.940485	
C 	 -7.456234	 9.457137	 2.254678	
C 	 -8.086841	10.718391	 2.307692	
C 	 -9.444130	10.831674	 2.103905	
C 	 -8.189924	 8.329314	 1.976221	
H 	 -6.383923	 9.396866	 2.440796	
H 	 -7.480832	11.603695	 2.506497	
C 	 -9.590041	 8.418781	 1.721547	
C 	 -10.232893	 9.672379	 1.833057	
C 	 -11.646518	 9.725825	 1.680854	
C 	 -12.366996	 8.600413	 1.375230	
C 	 -11.708390	 7.358083	 1.193287	
C 	 -10.352745	 7.272635	 1.361374	
H 	 -12.150541	10.682543	 1.820962	
H 	 -13.449479	 8.640433	 1.268746	
H 	 -12.292398	 6.481005	 0.920374	
H 	 -9.835755	 6.323379	 1.216938	
C 	 -9.848723	12.993557	 3.258137	
C 	 -10.326217	14.300185	 3.254897	
C 	 -10.990146	14.801046	 2.134750	
C 	 -11.196153	13.981346	 1.025345	
C 	 -10.716830	12.674267	 1.022910	
C 	 -10.031771	12.176697	 2.136359	
H 	 -9.329380	12.602438	 4.130856	
H 	 -10.175767	14.938754	 4.124533	
H 	 -11.339000	15.831091	 2.124075	
H 	 -11.729605	14.368104	 0.158658	
H 	 -10.860191	12.038181	 0.151030	
