129
1(6-1(8-1(30-1)))(10-2(18-1(26-1)))
C 	 -7.444475	 2.201876	 2.231736	
C 	 -8.043544	 0.966565	 2.224549	
C 	 -7.263274	-0.216879	 2.163108	
C 	 -5.895510	-0.149815	 2.132400	
H 	 -8.043626	 3.112208	 2.302047	
H 	 -9.128103	 0.878130	 2.270832	
H 	 -7.769201	-1.182914	 2.147273	
H 	 -5.265898	-1.039494	 2.103112	
C 	 -6.034149	 2.313345	 2.160904	
C 	 -5.259768	 1.126021	 2.139829	
C 	 -3.284508	 2.363428	 2.144845	
C 	 -5.295882	 3.548070	 2.123017	
N 	 -3.892079	 1.174999	 2.131444	
N 	 -3.968109	 3.568369	 2.129579	
C 	  0.311262	 3.573053	 2.164559	
C 	 -1.086526	 3.567633	 2.157976	
C 	 -1.811307	 2.366544	 2.168788	
C 	 -1.157947	 1.120404	 2.196466	
H 	  0.877475	 4.499315	 2.149486	
H 	 -1.627258	 4.522209	 2.135812	
H 	 -1.731050	 0.186912	 2.197958	
C 	  0.221589	 1.109167	 2.208522	
C 	  0.934412	 2.338171	 2.180226	
O 	  2.309798	 2.134124	 2.143906	
C 	  2.473342	 0.749814	 2.122691	
C 	  1.230558	 0.071762	 2.196634	
C 	  1.196429	-1.305323	 2.226764	
C 	  2.392319	-2.052214	 2.116177	
C 	  3.585485	-1.331735	 1.959149	
C 	  3.663991	 0.066559	 2.001692	
H 	  0.218474	-1.783987	 2.325490	
H 	  4.527517	-1.854727	 1.773959	
H 	  4.619191	 0.578664	 1.928890	
C 	  1.012239	-4.052488	 2.079056	
C 	  0.716831	-5.429480	 2.081095	
C 	  1.770499	-6.299926	 2.095372	
C 	  2.294466	-3.532499	 2.139125	
H 	  0.134443	-3.397196	 2.024607	
H 	 -0.322047	-5.758028	 2.065927	
C 	  3.391874	-4.467204	 2.210276	
C 	  3.124177	-5.863516	 2.138657	
C 	  4.180617	-6.814011	 2.114278	
C 	  5.489950	-6.412334	 2.169902	
C 	  5.777988	-5.037448	 2.311497	
C 	  4.763332	-4.113732	 2.358915	
H 	  3.946514	-7.876315	 2.046838	
H 	  6.305415	-7.131616	 2.123072	
H 	  6.817839	-4.721033	 2.394173	
H 	  5.040531	-3.073016	 2.537793	
F 	  1.517989	-7.599308	 2.072738	
N 	 -8.284237	 8.365588	 2.210021	
C 	 -6.010132	 4.836629	 2.088086	
C 	 -5.732057	 5.815520	 3.047009	
C 	 -6.465866	 6.994787	 3.076865	
C 	 -7.487746	 7.199000	 2.135123	
C 	 -7.723230	 6.247903	 1.127309	
C 	 -6.977815	 5.076798	 1.105654	
H 	 -4.937803	 5.651360	 3.779311	
H 	 -6.260637	 7.755736	 3.831327	
H 	 -8.479474	 6.437143	 0.364251	
H 	 -7.146218	 4.349737	 0.308862	
C 	 -6.475983	12.048935	 3.103480	
C 	 -5.831078	11.140006	 2.258861	
C 	 -6.434104	 9.927212	 1.951575	
C 	 -7.685457	 9.614592	 2.508185	
C 	 -8.332645	10.524432	 3.359273	
C 	 -7.724984	11.741066	 3.649367	
H 	 -4.851983	11.380474	 1.839171	
H 	 -5.945579	 9.224349	 1.276563	
H 	 -9.298617	10.273282	 3.796244	
H 	 -8.221743	12.452107	 4.312618	
C 	 -12.408569	 8.075752	 1.454633	
C 	 -11.688814	 9.174567	 0.987085	
C 	 -10.325432	 9.285032	 1.236628	
C 	 -9.675883	 8.274907	 1.961312	
C 	 -10.395707	 7.167476	 2.437713	
C 	 -11.758969	 7.078153	 2.180365	
H 	 -13.474113	 7.997086	 1.254055	
H 	 -12.195075	 9.951793	 0.416258	
H 	 -9.761103	10.139927	 0.865735	
H 	 -9.889642	 6.391999	 3.010325	
H 	 -12.322265	 6.223909	 2.553210	
C 	 -2.704413	14.515907	 4.837572	
C 	 -2.107144	15.708691	 5.156863	
C 	 -2.762569	16.939961	 4.901657	
C 	 -4.011158	16.961109	 4.329896	
H 	 -2.221099	13.556491	 5.026304	
H 	 -1.117359	15.724646	 5.615352	
H 	 -2.259539	17.868716	 5.169481	
H 	 -4.523671	17.904990	 4.133334	
C 	 -4.659168	15.749034	 3.990966	
C 	 -4.000805	14.518970	 4.246841	
N 	 -4.596399	13.318086	 3.939714	
C 	 -5.823300	13.333013	 3.427778	
N 	 -6.541778	14.489517	 3.161854	
C 	 -5.972287	15.658712	 3.410619	
N 	 -8.762246	20.453749	 2.186771	
C 	 -6.629813	24.015666	 1.551637	
C 	 -7.792532	23.761991	 0.825238	
C 	 -8.492297	22.575355	 1.006522	
C 	 -8.026218	21.633678	 1.938933	
C 	 -6.841671	21.872175	 2.653404	
C 	 -6.155468	23.064651	 2.453772	
H 	 -6.095601	24.951803	 1.413960	
H 	 -8.157315	24.496046	 0.108060	
H 	 -9.394086	22.375531	 0.429984	
H 	 -6.478524	21.136338	 3.367575	
H 	 -5.243410	23.258679	 3.015561	
C 	 -6.723837	16.885419	 3.072400	
C 	 -6.355989	17.635474	 1.951029	
C 	 -7.029751	18.812470	 1.645518	
C 	 -8.086920	19.236459	 2.465411	
C 	 -8.480692	18.467388	 3.570823	
C 	 -7.795925	17.294018	 3.869282	
H 	 -5.549196	17.295698	 1.300251	
H 	 -6.754507	19.400346	 0.769011	
H 	 -9.315072	18.797795	 4.190055	
H 	 -8.100606	16.696048	 4.729433	
C 	 -12.936120	20.555272	 1.734626	
C 	 -12.214449	19.443836	 1.302504	
C 	 -10.834600	19.387278	 1.466407	
C 	 -10.172220	20.467828	 2.066558	
C 	 -10.897754	21.574093	 2.537900	
C 	 -12.275621	21.610592	 2.362943	
H 	 -14.011517	20.599789	 1.584117	
H 	 -12.731593	18.613944	 0.824030	
H 	 -10.269782	18.523596	 1.119965	
H 	 -10.380815	22.393754	 3.034461	
H 	 -12.840319	22.469757	 2.721324	
