127
2(12-1(14-1(29-1)))(8-2(12-1(31-1)))
C 	 -0.792505	 2.382839	 2.151630	
C 	 -1.454878	 3.618722	 2.136583	
C 	 -2.846310	 3.603752	 2.136466	
C 	 -3.538299	 2.393616	 2.139126	
C 	 -2.818337	 1.178595	 2.155029	
H 	 -0.891491	 4.545207	 2.131053	
H 	 -3.391062	 4.548265	 2.131918	
H 	 -4.624142	 2.407341	 2.128010	
N 	 -1.467050	 1.221752	 2.173137	
C 	  8.123869	 3.776024	 1.421403	
C 	  7.786335	 4.975739	 0.803591	
C 	  6.446306	 5.349716	 0.639340	
C 	  5.400025	 4.530685	 1.053325	
H 	  9.165196	 3.487973	 1.550814	
H 	  8.570686	 5.640546	 0.448067	
H 	  6.220382	 6.309943	 0.176682	
H 	  4.366768	 4.838785	 0.926392	
C 	  7.101181	 2.949225	 1.866808	
C 	  5.732540	 3.314640	 1.647808	
N 	  4.901779	 2.282915	 2.141247	
C 	  7.098314	 1.673610	 2.543082	
C 	  5.726971	 1.274472	 2.674999	
C 	  5.399825	 0.038515	 3.233059	
C 	  6.442407	-0.778702	 3.653983	
C 	  7.790674	-0.391078	 3.543752	
C 	  8.115428	 0.864903	 3.026915	
H 	  4.364139	-0.278930	 3.322375	
H 	  6.214214	-1.753341	 4.089622	
H 	  9.147037	 1.213591	 3.005621	
C 	  0.687264	 2.314222	 2.142448	
C 	  1.387367	 1.968463	 3.300379	
C 	  2.779522	 1.960254	 3.306225	
C 	  3.484207	 2.285965	 2.138153	
C 	  2.783236	 2.608530	 0.966988	
C 	  1.391170	 2.620281	 0.974881	
H 	  0.837492	 1.705108	 4.205750	
H 	  3.323122	 1.713882	 4.216959	
H 	  3.328169	 2.834060	 0.052058	
H 	  0.846234	 2.863293	 0.061782	
C 	 12.274215	-2.565143	 3.048059	
C 	 12.518390	-1.894103	 1.880011	
C 	 11.533268	-1.042129	 1.321661	
C 	 10.321209	-0.868921	 1.939531	
H 	 12.999194	-3.248485	 3.487051	
H 	 13.465002	-2.013320	 1.355466	
H 	 11.757561	-0.534365	 0.387077	
H 	  9.548819	-0.260062	 1.465884	
C 	 10.054604	-1.492313	 3.182603	
C 	 11.032206	-2.369768	 3.720616	
N 	 10.813707	-3.051719	 4.890734	
C 	  9.657263	-2.876082	 5.531897	
N 	  8.669591	-2.009103	 5.087752	
C 	  8.855494	-1.323024	 3.963879	
C 	  9.433619	-3.633681	 6.783393	
C 	  8.206974	-3.506192	 7.490588	
C 	  7.994402	-4.202815	 8.651854	
C 	 10.414353	-4.468302	 7.278111	
H 	  7.442743	-2.838557	 7.088259	
H 	  7.057669	-4.108389	 9.197443	
H 	 11.365733	-4.580633	 6.750811	
C 	 10.215140	-5.199314	 8.480874	
C 	  8.994319	-5.067841	 9.176965	
C 	  8.797076	-5.801153	10.381497	
C 	  9.780725	-6.626631	10.862171	
C 	 11.007989	-6.759555	10.164157	
C 	 11.220313	-6.063377	 9.002258	
H 	  7.853669	-5.695176	10.913081	
H 	  9.639904	-7.191918	11.782456	
H 	 11.769346	-7.422784	10.571684	
H 	 12.159868	-6.160166	 8.460652	
C 	 -4.861880	-0.198744	 2.168806	
C 	 -5.583878	-1.413070	 2.153840	
C 	 -4.940234	-2.627985	 2.140162	
C 	 -3.481751	-0.155374	 2.148867	
H 	 -5.449748	 0.720176	 2.193708	
H 	 -6.673497	-1.371433	 2.145690	
C 	 -2.781656	-1.411766	 2.122800	
C 	 -3.509507	-2.635075	 2.147428	
C 	 -2.803415	-3.869633	 2.183615	
C 	 -1.436936	-3.912547	 2.112596	
C 	 -0.707469	-2.706023	 2.052801	
C 	 -1.364532	-1.504931	 2.071646	
H 	 -3.363757	-4.799460	 2.285156	
H 	 -0.900582	-4.857114	 2.106728	
H 	  0.378695	-2.733506	 2.004955	
H 	 -0.754862	-0.595669	 2.043600	
C 	 -8.076209	-11.114703	 2.241885	
C 	 -6.741131	-11.494571	 2.334849	
C 	 -5.717780	-10.538862	 2.388478	
C 	 -5.988999	-9.176252	 2.338082	
H 	 -8.865589	-11.861777	 2.208666	
H 	 -6.480524	-12.549335	 2.372576	
H 	 -4.684832	-10.874670	 2.474549	
H 	 -5.191010	-8.443235	 2.393875	
C 	 -8.381785	-9.760873	 2.192698	
C 	 -7.324572	-8.792177	 2.227328	
N 	 -7.888611	-7.502857	 2.167543	
C 	 -9.626541	-9.030805	 2.108114	
C 	 -9.287703	-7.638535	 2.081156	
C 	 -10.269163	-6.656862	 1.956703	
C 	 -11.592680	-7.073602	 1.897342	
C 	 -11.941931	-8.433356	 1.955474	
C 	 -10.959426	-9.418665	 2.054123	
H 	 -10.003922	-5.606233	 1.895725	
H 	 -12.382590	-6.328905	 1.804632	
H 	 -11.234189	-10.470584	 2.084757	
C 	 -5.732298	-3.872064	 2.113350	
C 	 -6.806321	-4.051970	 2.994151	
C 	 -7.532147	-5.239655	 3.005869	
C 	 -7.175568	-6.280810	 2.138245	
C 	 -6.120750	-6.103927	 1.232573	
C 	 -5.435709	-4.894499	 1.202472	
H 	 -7.081215	-3.253845	 3.684651	
H 	 -8.363307	-5.375903	 3.696772	
H 	 -5.852575	-6.910384	 0.551484	
H 	 -4.651088	-4.738934	 0.458430	
C 	 -14.010063	-9.256881	 3.063365	
C 	 -15.355997	-9.614502	 3.019912	
C 	 -16.065740	-9.529145	 1.823447	
C 	 -15.425146	-9.080638	 0.669675	
C 	 -14.079983	-8.718616	 0.710212	
C 	 -13.364525	-8.809500	 1.907326	
H 	 -13.459294	-9.322235	 3.999518	
H 	 -15.856767	-9.962546	 3.921265	
H 	 -17.116145	-9.811329	 1.790364	
H 	 -15.979709	-9.014669	-0.264533	
H 	 -13.583907	-8.369631	-0.193304	
