176
3(16-1(8-1(31-1)))(6-2(9-1(27-1)))
C 	 -3.654558	 1.814307	 2.305512	
C 	 -5.656575	 0.615624	 2.280804	
C 	 -3.631879	-0.512231	 2.340089	
N 	 -5.011711	 1.814186	 2.274084	
N 	 -4.992635	-0.568304	 2.317395	
N 	 -2.939479	 0.660566	 2.346936	
N 	  0.315425	 4.850681	 2.678125	
C 	  0.395432	 6.150003	 2.383247	
N 	 -0.872994	 6.661252	 1.992008	
C 	 -1.012868	 4.458149	 2.477536	
C 	 -1.773766	 5.596701	 2.046907	
C 	 -3.129886	 5.496701	 1.725994	
C 	 -3.706203	 4.247293	 1.833936	
C 	 -2.965776	 3.112738	 2.255199	
C 	 -1.619712	 3.205246	 2.590845	
H 	 -3.689363	 6.362896	 1.388907	
H 	 -4.764192	 4.120152	 1.583323	
H 	 -1.046163	 2.334528	 2.920601	
C 	 -1.865656	10.595919	 0.945102	
C 	 -2.568919	 9.947060	 1.959404	
C 	 -2.250203	 8.637643	 2.303463	
C 	 -1.208342	 7.989199	 1.626236	
C 	 -0.499307	 8.630614	 0.605042	
C 	 -0.837395	 9.939019	 0.270855	
H 	 -2.123422	11.617696	 0.674628	
H 	 -3.367411	10.467504	 2.487213	
H 	 -2.794038	 8.123603	 3.094937	
H 	  0.302760	 8.113741	 0.078461	
H 	 -0.298753	10.450677	-0.526568	
C 	  2.655586	 6.389225	 1.590715	
C 	  3.902778	 7.038811	 1.518177	
C 	  4.114106	 8.197471	 2.227056	
C 	  1.633248	 6.921109	 2.349067	
H 	  2.517446	 5.442743	 1.060525	
H 	  4.700014	 6.607484	 0.914297	
C 	  1.809597	 8.147406	 3.053619	
C 	  3.061076	 8.803010	 2.970115	
C 	  3.242993	10.051312	 3.626633	
C 	  2.216077	10.629207	 4.323214	
C 	  0.974291	 9.957838	 4.438351	
C 	  0.783764	 8.739719	 3.840748	
H 	  4.213337	10.541921	 3.560620	
H 	  2.342508	11.597354	 4.803054	
H 	  0.181026	10.424453	 5.017298	
H 	 -0.158451	 8.208509	 3.967557	
C 	  6.407228	 8.142395	 3.099244	
C 	  7.707046	 8.634507	 3.158193	
C 	  8.081178	 9.712339	 2.357059	
C 	  7.153448	10.298591	 1.498562	
C 	  5.842454	 9.828851	 1.453932	
C 	  5.473171	 8.751743	 2.257262	
H 	  6.113712	 7.282200	 3.699877	
H 	  8.430694	 8.175530	 3.828113	
H 	  9.098100	10.095137	 2.402173	
H 	  7.453853	11.125692	 0.860206	
H 	  5.114968	10.293736	 0.793647	
N 	 -2.962372	-5.440693	 2.925686	
C 	 -1.918546	-6.185906	 2.556220	
N 	 -0.884261	-5.378259	 2.006668	
C 	 -2.653821	-4.111315	 2.620242	
C 	 -1.337921	-4.057439	 2.047028	
C 	 -0.776588	-2.849693	 1.623792	
C 	 -1.551992	-1.715819	 1.762576	
C 	 -2.861550	-1.763436	 2.303646	
C 	 -3.421231	-2.952893	 2.754490	
H 	  0.218393	-2.810893	 1.193592	
H 	 -1.155027	-0.745148	 1.446434	
H 	 -4.423494	-2.997540	 3.186938	
C 	  2.859992	-6.637340	 0.599011	
C 	  2.781090	-5.638409	 1.568688	
C 	  1.541431	-5.206318	 2.029061	
C 	  0.378786	-5.798036	 1.516594	
C 	  0.448581	-6.801221	 0.543349	
C 	  1.698133	-7.216225	 0.091109	
H 	  3.831383	-6.964191	 0.234321	
H 	  3.693431	-5.198891	 1.971397	
H 	  1.473156	-4.425674	 2.785743	
H 	 -0.460056	-7.250725	 0.143738	
H 	  1.769363	-7.995954	-0.666769	
C 	 -2.964523	-8.285537	 2.020677	
C 	 -3.062588	-9.690119	 2.054875	
C 	 -2.102188	-10.429680	 2.702958	
C 	 -1.897613	-7.643188	 2.614283	
H 	 -3.761569	-7.707968	 1.543175	
H 	 -3.911623	-10.179665	 1.579943	
C 	 -0.870392	-8.386464	 3.263846	
C 	 -0.964947	-9.798582	 3.284433	
C 	  0.075649	-10.559068	 3.885095	
C 	  1.165773	-9.938953	 4.433740	
C 	  1.240587	-8.524689	 4.453297	
C 	  0.240130	-7.768343	 3.901840	
H 	 -0.008976	-11.644797	 3.896513	
H 	  1.977132	-10.519485	 4.867080	
H 	  2.101782	-8.054279	 4.921169	
H 	  0.282825	-6.681129	 3.951805	
C 	 -3.206380	-12.321769	 3.818257	
C 	 -3.418111	-13.686105	 3.991528	
C 	 -2.763173	-14.603401	 3.171617	
C 	 -1.895836	-14.154036	 2.177874	
C 	 -1.657495	-12.790780	 2.016762	
C 	 -2.310862	-11.876922	 2.842340	
H 	 -3.737953	-11.598738	 4.435739	
H 	 -4.096049	-14.035485	 4.766902	
H 	 -2.929612	-15.669626	 3.306608	
H 	 -1.402275	-14.870786	 1.526323	
H 	 -0.970940	-12.442059	 1.249373	
C 	 -9.300711	-0.449403	 2.176510	
C 	 -7.904400	-0.505427	 2.211654	
C 	 -7.123731	 0.661265	 2.229206	
C 	 -7.717423	 1.933487	 2.196999	
H 	 -9.905290	-1.351145	 2.168341	
H 	 -7.402912	-1.480579	 2.225663	
H 	 -7.108952	 2.843759	 2.202034	
C 	 -9.092358	 2.002795	 2.162316	
C 	 -9.867733	 0.812638	 2.155840	
O 	 -11.229258	 1.091676	 2.129662	
C 	 -11.319064	 2.484136	 2.123070	
C 	 -10.038320	 3.091314	 2.140399	
C 	 -9.919321	 4.464432	 2.142164	
C 	 -11.083215	 5.250715	 2.133619	
C 	 -12.338165	 4.617273	 2.110411	
C 	 -12.482591	 3.225619	 2.104273	
H 	 -8.923950	 4.910677	 2.153154	
H 	 -13.246701	 5.222565	 2.097288	
H 	 -13.460435	 2.754328	 2.086322	
C 	 -12.072197	 7.557019	 2.106444	
C 	 -10.947035	 6.715419	 2.162782	
C 	 -9.673531	 7.294735	 2.257771	
C 	 -9.493178	 8.676443	 2.296718	
H 	 -13.075924	 7.139881	 2.015027	
H 	 -8.782480	 6.666606	 2.303546	
H 	 -8.492631	 9.096607	 2.360440	
C 	 -10.611357	 9.489994	 2.250617	
C 	 -11.905428	 8.929536	 2.166193	
C 	 -12.968029	10.036558	 2.147491	
C 	 -12.086028	11.296398	 2.113705	
C 	 -10.721013	10.941121	 2.239127	
C 	 -9.738029	11.911159	 2.309502	
C 	 -10.119808	13.253325	 2.251564	
C 	 -11.457323	13.624186	 2.081415	
C 	 -12.443667	12.623470	 1.986233	
H 	 -8.689545	11.642884	 2.410469	
H 	 -9.344453	14.013657	 2.341182	
H 	 -13.480764	12.898530	 1.800325	
C 	 -15.321134	10.001000	 5.796895	
C 	 -15.321610	11.116170	 4.963267	
C 	 -14.549196	11.124476	 3.805085	
C 	 -13.780667	10.015278	 3.435127	
C 	 -13.768538	 8.914544	 4.296046	
C 	 -14.527220	 8.907542	 5.465805	
H 	 -15.928303	 9.986332	 6.698124	
H 	 -15.923866	11.985503	 5.218874	
H 	 -14.551267	12.025353	 3.194033	
H 	 -13.155894	 8.038527	 4.091100	
H 	 -14.491399	 8.040874	 6.123980	
C 	 -15.378859	 9.926885	-1.448045	
C 	 -15.671862	10.832391	-0.431625	
C 	 -14.910489	10.848106	 0.734579	
C 	 -13.830244	 9.976145	 0.901925	
C 	 -13.534315	 9.085381	-0.134168	
C 	 -14.307207	 9.052411	-1.293169	
H 	 -15.978358	 9.904885	-2.354281	
H 	 -16.497275	11.531707	-0.549299	
H 	 -15.181194	11.556872	 1.514011	
H 	 -12.685261	 8.405526	-0.065759	
H 	 -14.065014	 8.342100	-2.081580	
C 	 -13.441603	16.841285	 2.101207	
C 	 -13.153040	15.472057	 2.147760	
C 	 -11.824429	15.047389	 2.021406	
C 	 -10.843730	16.034466	 1.851151	
C 	 -11.216145	17.382057	 1.835829	
N 	 -12.494473	17.785909	 1.955785	
H 	 -14.469022	17.213352	 2.183046	
H 	 -13.961909	14.759476	 2.284721	
H 	 -9.796702	15.771453	 1.728385	
H 	 -10.474421	18.180494	 1.723358	
