155
2(15-1(16-1(22-1)))(9-2(4-1(28-1)))
C 	 -0.854055	 2.252805	 2.307857	
C 	 -1.361612	 3.390947	 1.655601	
C 	 -2.736706	 3.482860	 1.464119	
C 	 -3.558587	 2.427487	 1.853890	
C 	 -2.964840	 1.300965	 2.442994	
H 	 -0.687606	 4.164154	 1.301430	
H 	 -3.163197	 4.368728	 0.994279	
H 	 -4.629759	 2.452910	 1.682327	
N 	 -1.644037	 1.250644	 2.724495	
N 	  3.399524	 1.959515	 2.823125	
C 	  2.727268	 3.030545	 3.197843	
C 	  1.314870	 3.155515	 3.051671	
C 	  0.598519	 2.106919	 2.528502	
H 	  3.310179	 3.849007	 3.639649	
H 	  0.829253	 4.079035	 3.361753	
C 	  2.710717	 0.889884	 2.312649	
C 	  1.291273	 0.902257	 2.173228	
N 	  0.606632	-0.196095	 1.718112	
C 	  1.279425	-1.300979	 1.453559	
C 	  2.699424	-1.394802	 1.533977	
C 	  3.424928	-0.295468	 1.924534	
H 	  0.680226	-2.171417	 1.148489	
H 	  3.188570	-2.328390	 1.258207	
N 	  7.966885	-2.095057	 3.031844	
C 	  9.168155	-1.612857	 2.682322	
N 	  9.021526	-0.415365	 1.935796	
C 	  6.998194	-1.230409	 2.518597	
C 	  7.649808	-0.161294	 1.819023	
C 	  6.923329	 0.827237	 1.149050	
C 	  5.545501	 0.740485	 1.206397	
C 	  4.890622	-0.297642	 1.915452	
C 	  5.601802	-1.290449	 2.572498	
H 	  7.417747	 1.623899	 0.604982	
H 	  4.934288	 1.492567	 0.703085	
H 	  5.106962	-2.090692	 3.118449	
C 	 12.084897	 2.252251	 0.907264	
C 	 11.333421	 2.468765	 2.062556	
C 	 10.302619	 1.597626	 2.397941	
C 	 10.041870	 0.500655	 1.567438	
C 	 10.778779	 0.280975	 0.400662	
C 	 11.806474	 1.164836	 0.080488	
H 	 12.889957	 2.939739	 0.649572	
H 	 11.554239	 3.318583	 2.708149	
H 	  9.705341	 1.756072	 3.296829	
H 	 10.550702	-0.572168	-0.239590	
H 	 12.394733	 1.001232	-0.822133	
C 	 10.426877	-2.317111	 2.916227	
C 	 10.337879	-3.704911	 3.083638	
C 	 11.484148	-4.490722	 3.215190	
C 	 11.679701	-1.680974	 2.945757	
H 	  9.350520	-4.177860	 3.106059	
H 	 11.400782	-5.567095	 3.337650	
H 	 11.762359	-0.599765	 2.873340	
C 	 12.717491	-3.866421	 3.182189	
C 	 12.814248	-2.456062	 3.073821	
C 	 14.276675	-2.028403	 3.131551	
C 	 14.694303	-1.230035	 1.900551	
C 	 14.549831	-1.257617	 4.425064	
C 	 15.000101	-3.368759	 3.175961	
C 	 14.063709	-4.429805	 3.233151	
C 	 14.487824	-5.744614	 3.299799	
C 	 15.864463	-5.998901	 3.303735	
C 	 16.783582	-4.955111	 3.238416	
C 	 16.356685	-3.622323	 3.172144	
H 	 13.774033	-6.563203	 3.345389	
H 	 16.218599	-7.026798	 3.351835	
H 	 17.850060	-5.171792	 3.234387	
H 	 17.079932	-2.812640	 3.117172	
H 	 15.609730	-0.995992	 4.518046	
H 	 13.966564	-0.332372	 4.473240	
H 	 14.280949	-1.858068	 5.304088	
H 	 15.771734	-1.024381	 1.909497	
H 	 14.471201	-1.781594	 0.979430	
H 	 14.169785	-0.270658	 1.840625	
C 	 -3.044630	-1.146278	 2.378656	
C 	 -3.710858	 0.053952	 2.685875	
C 	 -5.021468	 0.045208	 3.156593	
C 	 -5.713076	-1.164253	 3.290868	
H 	 -2.006853	-1.110836	 2.018624	
H 	 -5.518618	 0.974894	 3.425492	
H 	 -6.738794	-1.176278	 3.649363	
C 	 -5.064928	-2.342453	 2.964913	
C 	 -3.709843	-2.339741	 2.553281	
C 	 -3.193767	-3.768425	 2.400207	
C 	 -4.501484	-4.562457	 2.497762	
C 	 -5.558464	-3.714311	 2.914464	
C 	 -6.827779	-4.212281	 3.146183	
C 	 -7.068679	-5.572013	 2.922033	
C 	 -6.045760	-6.398262	 2.461243	
C 	 -4.751201	-5.891854	 2.230455	
H 	 -7.623515	-3.563465	 3.501361	
H 	 -8.065437	-5.972029	 3.108928	
H 	 -3.979751	-6.563887	 1.844405	
C 	 -0.497467	-4.601812	 5.694276	
C 	 -1.431988	-5.551297	 5.290705	
C 	 -2.302143	-5.284602	 4.234583	
C 	 -2.249503	-4.062855	 3.561073	
C 	 -1.297572	-3.121473	 3.961140	
C 	 -0.432618	-3.384809	 5.020563	
H 	  0.173694	-4.803516	 6.528002	
H 	 -1.489211	-6.511338	 5.800565	
H 	 -3.026248	-6.051158	 3.954606	
H 	 -1.210988	-2.152196	 3.463154	
H 	  0.293413	-2.628521	 5.319745	
C 	 -1.206681	-4.748171	-1.290966	
C 	 -1.262761	-5.668012	-0.245239	
C 	 -1.886023	-5.325810	 0.949208	
C 	 -2.500430	-4.077745	 1.098727	
C 	 -2.474170	-3.175820	 0.036906	
C 	 -1.805210	-3.500262	-1.142803	
H 	 -0.700492	-5.006271	-2.216893	
H 	 -0.821855	-6.655366	-0.361105	
H 	 -1.893545	-6.039947	 1.772712	
H 	 -2.980505	-2.214906	 0.111155	
H 	 -1.754009	-2.772294	-1.948496	
N 	 -5.357293	-8.769231	 2.606941	
C 	 -6.237369	-7.829719	 2.242345	
N 	 -7.341924	-8.406472	 1.565924	
C 	 -5.867153	-10.002084	 2.190765	
C 	 -7.114866	-9.789235	 1.513596	
C 	 -7.808544	-10.843242	 0.912974	
C 	 -7.265001	-12.108388	 1.041947	
C 	 -6.075794	-12.339964	 1.774800	
C 	 -5.361227	-11.296379	 2.345031	
H 	 -8.725998	-10.672766	 0.358096	
H 	 -7.756168	-12.961445	 0.570508	
H 	 -4.440828	-11.462375	 2.903932	
C 	 -10.969045	-6.482337	 0.706249	
C 	 -10.914552	-7.446847	 1.711936	
C 	 -9.717322	-8.098446	 1.990226	
C 	 -8.571355	-7.768358	 1.255183	
C 	 -8.617917	-6.804094	 0.244024	
C 	 -9.824457	-6.162185	-0.021670	
H 	 -11.909609	-5.979181	 0.488543	
H 	 -11.808191	-7.691010	 2.285852	
H 	 -9.660600	-8.851315	 2.774851	
H 	 -7.720505	-6.564438	-0.325405	
H 	 -9.871668	-5.402746	-0.802682	
C 	 -6.514513	-14.619656	 2.549303	
C 	 -6.147447	-15.970851	 2.748444	
C 	 -4.903960	-16.409823	 2.374341	
C 	 -5.642401	-13.732831	 1.957977	
H 	 -7.500198	-14.287611	 2.877580	
H 	 -6.867150	-16.651403	 3.202021	
H 	 -4.604365	-17.445563	 2.528328	
C 	 -4.351820	-14.170674	 1.534311	
C 	 -3.980610	-15.514189	 1.767131	
C 	 -2.683353	-15.954905	 1.383920	
C 	 -1.807374	-15.097291	 0.770665	
C 	 -2.193484	-13.759331	 0.500768	
C 	 -3.432302	-13.308053	 0.874908	
H 	 -2.406575	-16.985571	 1.593832	
H 	 -0.811824	-15.427172	 0.482067	
H 	 -1.492520	-13.102259	-0.009682	
H 	 -3.731599	-12.278385	 0.668863	
