120
2(7-1(12-1(32-1)))(8-2(12-1(24-1)))
C 	 -0.803401	 2.410306	 2.159770	
C 	 -1.528439	 3.614652	 2.147909	
C 	 -2.917555	 3.552673	 2.136800	
C 	 -3.553232	 2.318314	 2.131553	
C 	 -2.780028	 1.133775	 2.143438	
H 	 -1.023886	 4.573885	 2.145517	
H 	 -3.505703	 4.471217	 2.129266	
H 	 -4.638645	 2.283849	 2.117113	
N 	 -1.436405	 1.216750	 2.164191	
C 	  1.358117	 1.153407	 2.144629	
C 	  2.748935	 1.115666	 2.134950	
C 	  3.486550	 2.303817	 2.145558	
C 	  2.805889	 3.526488	 2.165614	
C 	  1.415584	 3.560988	 2.169809	
C 	  0.672681	 2.374533	 2.159540	
H 	  0.791607	 0.215344	 2.141124	
H 	  3.265535	 0.156795	 2.111290	
H 	  3.369296	 4.458431	 2.185921	
H 	  0.910893	 4.527094	 2.182350	
C 	 12.368937	 3.936311	 2.342532	
C 	 12.026165	 5.272952	 2.512508	
C 	 10.683573	 5.670649	 2.580164	
C 	  9.642696	 4.755621	 2.468971	
H 	 13.409632	 3.624297	 2.299012	
H 	 12.807964	 6.022847	 2.598906	
H 	 10.453842	 6.725988	 2.726760	
H 	  8.607646	 5.075719	 2.537647	
C 	 11.351355	 2.998660	 2.230441	
C 	  9.981140	 3.414786	 2.282214	
N 	  9.160108	 2.278406	 2.151946	
C 	 11.355357	 1.564985	 2.062213	
C 	  9.988511	 1.144028	 2.013745	
C 	  9.658096	-0.196669	 1.822374	
C 	 10.700743	-1.107804	 1.704602	
C 	 12.046449	-0.707678	 1.770323	
C 	 12.378520	 0.634348	 1.944381	
H 	  8.623515	-0.520030	 1.755431	
H 	 10.470081	-2.162468	 1.555727	
H 	 13.415849	 0.956752	 1.987268	
C 	  4.953963	 2.280270	 2.136806	
C 	  5.655276	 1.378800	 2.944920	
C 	  7.045729	 1.371267	 2.954624	
C 	  7.747081	 2.274505	 2.142996	
C 	  7.053699	 3.174858	 1.321190	
C 	  5.663926	 3.171461	 1.323580	
H 	  5.107185	 0.685834	 3.585666	
H 	  7.591447	 0.683322	 3.600560	
H 	  7.604229	 3.859017	 0.675394	
H 	  5.120479	 3.862797	 0.677103	
C 	 13.121024	-1.738234	 1.666371	
H 	 12.856182	-2.546975	 0.971679	
H 	 14.073730	-1.319299	 1.315867	
H 	 13.311962	-2.203413	 2.645791	
C 	 -4.807860	-0.221654	 2.157646	
C 	 -5.553083	-1.416369	 2.137555	
C 	 -4.917731	-2.634914	 2.139618	
C 	 -3.426804	-0.204605	 2.134522	
H 	 -5.379569	 0.709572	 2.187353	
H 	 -6.640418	-1.354288	 2.112639	
C 	 -2.738914	-1.466153	 2.112990	
C 	 -3.490329	-2.671446	 2.171582	
C 	 -2.815389	-3.921336	 2.263005	
C 	 -1.450801	-3.999879	 2.182231	
C 	 -0.696134	-2.813230	 2.044064	
C 	 -1.324114	-1.594831	 2.029288	
H 	 -3.401084	-4.828714	 2.415132	
H 	 -0.939107	-4.958035	 2.225162	
H 	  0.387066	-2.882163	 1.962888	
H 	 -0.709366	-0.693195	 1.945384	
C 	 -8.074025	-11.077854	 2.176428	
C 	 -6.747494	-11.461939	 2.336773	
C 	 -5.723637	-10.507837	 2.416047	
C 	 -5.984674	-9.143757	 2.338705	
H 	 -8.870343	-11.816651	 2.122257	
H 	 -6.496912	-12.517908	 2.402456	
H 	 -4.696217	-10.848917	 2.539815	
H 	 -5.184869	-8.413734	 2.416613	
C 	 -8.365941	-9.723494	 2.085104	
C 	 -7.312870	-8.755086	 2.164542	
N 	 -7.879223	-7.468888	 2.071156	
C 	 -9.601330	-8.995660	 1.926433	
C 	 -9.268155	-7.603031	 1.897583	
C 	 -10.242572	-6.623133	 1.705210	
C 	 -11.564982	-7.042200	 1.640726	
C 	 -11.905959	-8.399921	 1.772154	
C 	 -10.928625	-9.391214	 1.850845	
H 	 -9.976607	-5.574202	 1.611401	
H 	 -12.360259	-6.307189	 1.514158	
H 	 -11.200340	-10.443538	 1.892565	
C 	 -5.717214	-3.867704	 2.092500	
C 	 -6.766861	-4.059821	 2.997136	
C 	 -7.503120	-5.240292	 2.983528	
C 	 -7.169833	-6.244714	 2.064435	
C 	 -6.140564	-6.051436	 1.133616	
C 	 -5.435266	-4.854859	 1.140300	
H 	 -7.000475	-3.282039	 3.726721	
H 	 -8.319105	-5.392111	 3.691386	
H 	 -5.907624	-6.832930	 0.409618	
H 	 -4.648577	-4.682975	 0.402211	
C 	 -14.024419	-8.722055	 3.110679	
C 	 -15.381069	-9.096557	 3.060745	
C 	 -16.003966	-9.514325	 1.892734	
C 	 -15.276444	-9.593062	 0.708036	
C 	 -13.936360	-9.228509	 0.719427	
C 	 -13.318049	-8.783636	 1.895607	
H 	 -15.991456	-9.060079	 3.965799	
H 	 -17.059777	-9.781872	 1.904890	
H 	 -15.753695	-9.932042	-0.208528	
H 	 -13.355474	-9.285814	-0.202486	
C 	 -12.601431	-7.347888	 6.953174	
C 	 -11.702692	-7.506174	 5.904747	
C 	 -12.130562	-7.997344	 4.670253	
C 	 -13.478022	-8.284045	 4.416685	
C 	 -14.362976	-8.133243	 5.500807	
C 	 -13.935874	-7.691619	 6.746760	
H 	 -12.272492	-6.966871	 7.917310	
H 	 -10.653418	-7.246447	 6.048323	
H 	 -11.356559	-8.155165	 3.921862	
H 	 -15.423067	-8.367372	 5.383929	
H 	 -14.650032	-7.611461	 7.562292	
