110
2(6-1(11-1(25-1)))(6-2(5-1(23-1)))
C 	 -0.779465	 2.347858	 2.141921	
C 	 -1.476933	 3.566878	 2.141694	
C 	 -2.866031	 3.545451	 2.141531	
C 	 -3.518066	 2.322952	 2.141547	
C 	 -2.768394	 1.125641	 2.142015	
H 	 -0.948253	 4.513467	 2.141369	
H 	 -3.434524	 4.475821	 2.141236	
H 	 -4.604315	 2.307455	 2.141144	
N 	 -1.420711	 1.150557	 2.142484	
C 	  2.855588	 3.483753	 2.141326	
C 	  1.458024	 3.496533	 2.141451	
C 	  0.692066	 2.317173	 2.140458	
C 	  1.322205	 1.066811	 2.136899	
H 	  3.424903	 4.407045	 2.143213	
H 	  0.957406	 4.468387	 2.142549	
H 	  0.739434	 0.140349	 2.137351	
C 	  2.699986	 1.043927	 2.133708	
C 	  3.460843	 2.239897	 2.138758	
O 	  4.829319	 1.977469	 2.142330	
C 	  4.933795	 0.583503	 2.141664	
C 	  3.657760	-0.028414	 2.132066	
C 	  3.521555	-1.396698	 2.123605	
C 	  4.678369	-2.188495	 2.144856	
C 	  5.938570	-1.562879	 2.157666	
C 	  6.091017	-0.171467	 2.150215	
H 	  2.519564	-1.829321	 2.098548	
H 	  6.841933	-2.176942	 2.175316	
H 	  7.074678	 0.284537	 2.151773	
C 	  0.532032	-6.152572	 2.623579	
C 	 -0.341312	-7.231007	 2.736264	
C 	  0.129224	-8.550666	 2.701188	
C 	  1.480023	-8.838914	 2.534380	
H 	  0.166368	-5.127603	 2.658078	
H 	 -1.409235	-7.051372	 2.856596	
H 	 -0.579404	-9.372488	 2.807084	
H 	  1.843742	-9.861541	 2.521822	
C 	  1.887859	-6.408283	 2.464352	
C 	  2.350713	-7.760624	 2.399060	
N 	  3.749712	-7.755236	 2.224180	
C 	  3.052737	-5.559453	 2.335898	
C 	  4.185927	-6.417058	 2.182276	
C 	  5.460878	-5.894851	 1.983026	
C 	  5.603808	-4.511971	 1.969130	
C 	  4.509631	-3.647666	 2.153958	
C 	  3.228298	-4.187683	 2.334702	
H 	  6.314083	-6.546006	 1.827843	
H 	  6.598035	-4.092680	 1.803496	
H 	  2.351127	-3.551296	 2.475757	
C 	  6.226595	-11.115672	 1.910717	
C 	  6.569534	-10.074497	 2.781403	
C 	  5.747306	-8.961351	 2.891397	
C 	  4.575640	-8.889488	 2.120768	
C 	  4.226458	-9.931904	 1.248487	
C 	  5.056393	-11.041039	 1.146590	
H 	  7.480499	-10.142568	 3.378887	
H 	  5.994696	-8.157545	 3.586187	
H 	  3.322614	-9.861469	 0.641897	
H 	  4.802840	-11.851599	 0.461053	
N 	  7.760911	-13.178947	 1.716370	
C 	  7.071492	-12.253160	 1.802501	
C 	 -3.525038	-2.630350	 2.141514	
C 	 -2.821510	-1.415224	 2.141538	
C 	 -3.474392	-0.172023	 2.141966	
C 	 -4.876859	-0.131321	 2.142127	
H 	 -2.997583	-3.577852	 2.139834	
H 	 -1.724322	-1.430998	 2.140614	
H 	 -5.436264	 0.805156	 2.141811	
C 	 -5.575371	-1.315382	 2.142328	
C 	 -4.907484	-2.564006	 2.141935	
O 	 -5.820728	-3.621503	 2.141810	
C 	 -7.085995	-3.021392	 2.141600	
C 	 -6.981964	-1.609881	 2.142296	
C 	 -8.097950	-0.804884	 2.142773	
C 	 -9.364456	-1.409289	 2.141416	
C 	 -9.450777	-2.811609	 2.140260	
C 	 -8.321242	-3.642618	 2.140752	
H 	 -7.969928	 0.278609	 2.144168	
H 	 -10.436626	-3.285525	 2.138688	
H 	 -8.427916	-4.721742	 2.140287	
C 	 -12.965681	-0.210477	 2.150378	
C 	 -11.844967	-1.053319	 2.152223	
C 	 -10.547365	-0.535878	 2.141031	
C 	 -10.381660	 0.857117	 2.129884	
C 	 -11.481836	 1.703775	 2.129875	
C 	 -12.768981	 1.175572	 2.139206	
H 	 -11.982516	-2.138039	 2.162982	
H 	 -9.385037	 1.301176	 2.121027	
H 	 -11.332991	 2.782718	 2.122359	
H 	 -13.615615	 1.860532	 2.137491	
C 	 -16.927552	-1.893465	 2.177953	
C 	 -15.791206	-2.711342	 2.167741	
C 	 -14.515703	-2.162128	 2.158318	
C 	 -14.321619	-0.775395	 2.159860	
C 	 -15.457031	 0.043757	 2.170373	
C 	 -16.733689	-0.506375	 2.178804	
H 	 -15.887811	-3.796932	 2.166932	
H 	 -13.660393	-2.838075	 2.149429	
H 	 -15.360831	 1.129785	 2.172202	
H 	 -17.589327	 0.168830	 2.186247	
C 	 -20.864398	-3.571507	 2.205470	
C 	 -20.690620	-2.189416	 2.205747	
C 	 -19.409843	-1.645085	 2.196798	
C 	 -18.277919	-2.471871	 2.187405	
C 	 -18.467117	-3.860909	 2.187251	
C 	 -19.748443	-4.405068	 2.196190	
H 	 -21.864974	-3.996381	 2.212444	
H 	 -21.557042	-1.530731	 2.212952	
H 	 -19.303107	-0.559749	 2.197222	
H 	 -17.611973	-4.537791	 2.180103	
H 	 -19.876692	-5.486009	 2.195903	
