99
2(4-1(4-1(30-1)))(5-2(4-1(27-1)))
C 	 -0.950644	 2.293442	 2.022593	
C 	 -1.562112	 3.558755	 2.054770	
C 	 -2.945739	 3.614566	 2.173767	
C 	 -3.672554	 2.432191	 2.251750	
C 	 -2.996844	 1.196926	 2.212419	
H 	 -0.954745	 4.465948	 2.008032	
H 	 -3.454266	 4.577015	 2.221553	
H 	 -4.752087	 2.468377	 2.354534	
N 	 -1.652142	 1.143366	 2.086548	
N 	  1.273813	 3.344096	 2.018857	
C 	  0.515839	 2.234925	 2.000939	
N 	  1.310051	 1.071213	 2.124177	
C 	  2.599825	 2.938594	 2.157393	
C 	  2.632654	 1.508086	 2.264198	
C 	  3.829674	 0.834948	 2.529683	
C 	  4.979450	 1.592741	 2.593522	
C 	  4.984056	 2.987186	 2.341272	
C 	  3.787936	 3.680193	 2.172205	
H 	  3.842785	-0.238463	 2.693191	
H 	  5.913106	 1.098476	 2.861112	
H 	  3.767538	 4.768664	 2.050796	
C 	  0.555465	-2.861370	 0.897095	
C 	  1.237537	-2.623811	 2.089135	
C 	  1.442887	-1.322309	 2.537176	
C 	  0.980898	-0.261105	 1.752102	
C 	  0.268667	-0.487644	 0.568544	
C 	  0.052414	-1.797300	 0.151837	
H 	  0.396142	-3.883737	 0.560481	
H 	  1.598521	-3.459249	 2.684705	
H 	  1.942000	-1.131928	 3.485606	
H 	 -0.118801	 0.350215	-0.008964	
H 	 -0.511535	-1.985660	-0.759491	
N 	  6.321824	 5.066406	 2.354644	
C 	  6.237045	 3.730320	 2.242230	
N 	  7.512792	 3.175644	 1.964963	
C 	  7.656422	 5.424819	 2.174305	
C 	  8.429984	 4.237548	 1.938734	
C 	  9.811604	 4.277102	 1.728108	
C 	 10.427959	 5.513684	 1.764620	
C 	  9.652427	 6.669570	 2.003625	
C 	  8.281814	 6.676228	 2.207174	
H 	 10.374262	 3.364609	 1.543847	
H 	 11.506167	 5.598870	 1.613871	
H 	  7.709778	 7.585405	 2.389818	
C 	  8.677951	-0.849473	 1.799660	
C 	  9.137551	-0.031769	 2.830580	
C 	  8.760116	 1.305760	 2.883001	
C 	  7.913549	 1.815678	 1.889891	
C 	  7.470636	 1.008322	 0.836076	
C 	  7.854637	-0.329362	 0.801983	
H 	  8.960878	-1.899795	 1.776078	
H 	  9.785041	-0.443037	 3.604784	
H 	  9.109339	 1.952218	 3.687992	
H 	  6.825870	 1.422491	 0.061164	
H 	  7.505578	-0.972196	-0.006550	
F 	 10.298899	 7.826852	 2.037181	
C 	 -3.721648	-2.483462	 2.691580	
C 	 -3.027240	-1.296216	 2.431432	
C 	 -3.719133	-0.080133	 2.379230	
C 	 -5.110856	-0.081580	 2.541724	
C 	 -5.788488	-1.253743	 2.863963	
C 	 -5.089947	-2.450635	 2.972240	
H 	 -1.937002	-1.319156	 2.277349	
H 	 -5.684501	 0.837809	 2.428354	
H 	 -6.864022	-1.234915	 3.032239	
H 	 -5.614031	-3.358991	 3.265968	
N 	 -1.738256	-3.954178	 2.975394	
C 	 -3.010651	-3.754920	 2.625734	
N 	 -3.566555	-4.929748	 2.036231	
C 	 -1.400113	-5.261691	 2.609154	
C 	 -2.543143	-5.886715	 2.012087	
C 	 -2.471124	-7.170713	 1.469692	
C 	 -1.246005	-7.809595	 1.515664	
C 	 -0.113530	-7.215581	 2.122789	
C 	 -0.190079	-5.952639	 2.701305	
H 	 -3.342325	-7.629313	 1.012872	
H 	 -1.144089	-8.795663	 1.059644	
H 	  0.654918	-5.499211	 3.218906	
C 	 -7.596700	-5.932422	 1.417283	
C 	 -6.842046	-6.618453	 2.367718	
C 	 -5.508919	-6.281629	 2.576647	
C 	 -4.932960	-5.253058	 1.817490	
C 	 -5.681364	-4.566683	 0.855331	
C 	 -7.017783	-4.911554	 0.665242	
H 	 -8.640018	-6.200041	 1.257376	
H 	 -7.298304	-7.418206	 2.951592	
H 	 -4.915126	-6.807550	 3.324497	
H 	 -5.222431	-3.772588	 0.267115	
H 	 -7.612169	-4.379877	-0.078528	
C 	  3.570522	-7.913183	 1.882480	
C 	  2.360231	-7.215371	 1.940604	
C 	  1.167294	-7.933635	 2.087363	
C 	  1.240726	-9.329174	 2.162621	
C 	  2.493715	-9.947428	 2.072717	
N 	  3.640683	-9.256007	 1.938534	
H 	  4.530232	-7.394026	 1.783924	
H 	  2.349549	-6.132564	 1.858581	
H 	  0.347445	-9.933503	 2.290721	
H 	  2.606969	-11.037902	 2.105447	
