118
2(6-1(4-1(24-1)))(8-2(6-1(31-1)))
C 	 -0.831400	 2.433817	 2.160753	
C 	 -1.577996	 3.618192	 2.251126	
C 	 -2.964365	 3.519663	 2.366398	
C 	 -3.572102	 2.270230	 2.380816	
C 	 -2.767545	 1.124787	 2.205102	
H 	 -1.094149	 4.591174	 2.243645	
H 	 -3.569715	 4.422583	 2.453692	
H 	 -4.642712	 2.171734	 2.536713	
N 	 -1.434137	 1.221389	 2.091571	
C 	  2.818857	 3.490151	 1.967374	
C 	  1.420827	 3.532565	 1.945874	
C 	  0.640110	 2.388735	 2.169338	
C 	  1.247177	 1.147060	 2.421528	
H 	  3.416219	 4.381897	 1.802812	
H 	  0.930597	 4.487046	 1.744105	
H 	  0.651498	 0.244174	 2.597710	
C 	  2.622933	 1.083095	 2.417391	
C 	  3.393711	 2.254201	 2.197098	
O 	  4.758432	 1.975879	 2.194889	
C 	  4.848809	 0.595119	 2.353003	
C 	  3.569682	-0.001584	 2.505260	
C 	  3.438988	-1.374165	 2.574080	
C 	  4.601872	-2.136266	 2.419270	
C 	  5.869679	-1.532223	 2.352941	
C 	  6.017221	-0.143684	 2.317388	
H 	  2.459910	-1.836096	 2.711670	
H 	  6.757191	-2.172949	 2.313907	
H 	  6.992761	 0.324706	 2.241239	
N 	  5.295892	-4.487659	 2.816612	
C 	  4.510917	-3.579542	 2.237882	
N 	  3.648035	-4.180951	 1.272515	
C 	  4.969066	-5.731685	 2.263862	
C 	  3.946686	-5.553861	 1.276908	
C 	  3.507807	-6.612990	 0.479138	
C 	  4.063498	-7.856230	 0.720381	
C 	  5.001980	-8.060463	 1.759364	
C 	  5.476149	-7.005447	 2.529139	
H 	  2.777282	-6.457146	-0.310056	
H 	  3.776447	-8.709099	 0.101316	
H 	  6.211093	-7.146675	 3.320009	
C 	 -0.014758	-2.586077	-0.005081	
C 	  0.017091	-3.794192	 0.691487	
C 	  1.230585	-4.338476	 1.096772	
C 	  2.417856	-3.657611	 0.792477	
C 	  2.398498	-2.474138	 0.047118	
C 	  1.172343	-1.936040	-0.338265	
H 	 -0.972948	-2.144011	-0.276955	
H 	 -0.912213	-4.306729	 0.936884	
H 	  1.260833	-5.276705	 1.650834	
H 	  3.333461	-1.983242	-0.218757	
H 	  1.140142	-0.999493	-0.897912	
C 	  4.601385	-10.465473	 2.346386	
C 	  5.118140	-11.719183	 2.695040	
C 	  6.491528	-11.938556	 2.731143	
C 	  7.365958	-10.908924	 2.386328	
C 	  6.862994	-9.659629	 2.038517	
C 	  5.484237	-9.418841	 2.044645	
H 	  4.434103	-12.528684	 2.946245	
H 	  6.880015	-12.912841	 3.022982	
H 	  8.440324	-11.081137	 2.396026	
H 	  7.545173	-8.858311	 1.753480	
C 	  0.358890	-10.093963	 2.124232	
C 	  1.089399	-9.179753	 2.880545	
C 	  2.476170	-9.289208	 2.967820	
C 	  3.139953	-10.311269	 2.283887	
C 	  2.402645	-11.226447	 1.524285	
C 	  1.016058	-11.124400	 1.454061	
H 	 -0.722669	-10.004439	 2.052214	
H 	  0.576487	-8.375827	 3.404697	
H 	  3.044768	-8.570842	 3.559399	
H 	  2.916339	-12.018798	 0.981976	
H 	  0.447501	-11.848774	 0.874002	
C 	 -4.575518	-0.286323	 1.420875	
C 	 -5.319240	-1.479146	 1.385159	
C 	 -4.881021	-2.589999	 2.071664	
C 	 -3.393218	-0.211141	 2.127801	
H 	 -4.962130	 0.576491	 0.876404	
H 	 -6.250177	-1.510799	 0.817434	
C 	 -2.858486	-1.376746	 2.760971	
C 	 -3.636125	-2.564371	 2.767452	
C 	 -3.150254	-3.709157	 3.463887	
C 	 -1.897045	-3.723541	 4.016145	
C 	 -1.091448	-2.558974	 3.961160	
C 	 -1.578357	-1.413814	 3.385328	
H 	 -3.803482	-4.579339	 3.558085	
H 	 -1.508924	-4.614041	 4.513032	
H 	 -0.090934	-2.580694	 4.397823	
H 	 -0.967916	-0.506730	 3.398146	
C 	 -6.006154	-6.146451	 1.508561	
C 	 -5.213586	-5.001405	 1.585323	
C 	 -5.737700	-3.781135	 2.030262	
C 	 -7.094798	-3.641804	 2.363878	
H 	 -5.605458	-7.100903	 1.186461	
H 	 -4.168822	-5.055210	 1.275685	
H 	 -7.491397	-2.681639	 2.692579	
C 	 -7.914413	-4.749518	 2.243200	
C 	 -7.335692	-5.986221	 1.844203	
O 	 -8.272751	-7.006332	 1.779621	
C 	 -9.481497	-6.396421	 2.079877	
C 	 -9.336448	-5.014520	 2.370542	
C 	 -10.474180	-4.259113	 2.603693	
C 	 -11.736334	-4.876517	 2.519313	
C 	 -11.822486	-6.258413	 2.273352	
C 	 -10.696634	-7.049112	 2.051359	
H 	 -10.382592	-3.195234	 2.823414	
H 	 -12.798487	-6.747344	 2.229726	
H 	 -10.766001	-8.112703	 1.849438	
C 	 -12.922444	-2.680555	 2.573454	
C 	 -14.088506	-1.921354	 2.534873	
C 	 -15.333888	-2.543852	 2.520929	
C 	 -15.399907	-3.934410	 2.575560	
C 	 -14.233890	-4.693427	 2.623137	
C 	 -12.972180	-4.080656	 2.598303	
H 	 -11.962671	-2.166280	 2.567297	
H 	 -14.022945	-0.835774	 2.507179	
H 	 -16.244704	-1.951265	 2.467938	
H 	 -16.367865	-4.431813	 2.573970	
H 	 -14.322218	-5.778861	 2.666837	
