118
2(12-1(12-1(25-1)))(8-2(5-1(23-1)))
C 	 -0.734852	 2.374372	 2.185728	
C 	 -1.411878	 3.601614	 2.151182	
C 	 -2.799064	 3.572136	 2.058172	
C 	 -3.457192	 2.347854	 1.986347	
C 	 -2.713883	 1.148127	 2.016065	
H 	 -0.859536	 4.535653	 2.197708	
H 	 -3.368430	 4.502135	 2.038136	
H 	 -4.542619	 2.331134	 1.912873	
N 	 -1.367391	 1.189211	 2.133485	
C 	  8.130478	 3.743743	 1.422877	
C 	  7.785236	 4.955831	 0.833028	
C 	  6.443198	 5.326176	 0.668668	
C 	  5.405886	 4.499600	 1.081090	
H 	  9.173224	 3.467231	 1.559835	
H 	  8.566625	 5.632961	 0.495814	
H 	  6.210405	 6.286680	 0.209316	
H 	  4.368584	 4.799072	 0.970500	
C 	  7.115607	 2.891288	 1.838913	
C 	  5.749292	 3.276641	 1.655926	
N 	  4.918354	 2.259063	 2.162284	
C 	  7.103263	 1.595790	 2.479440	
C 	  5.730324	 1.228988	 2.664869	
C 	  5.371481	 0.008668	 3.237882	
C 	  6.395837	-0.829858	 3.654236	
C 	  7.745896	-0.468730	 3.502674	
C 	  8.106398	 0.740684	 2.907396	
H 	  4.329096	-0.278433	 3.347981	
H 	  6.151322	-1.786780	 4.117839	
H 	  9.151990	 1.013071	 2.776502	
C 	  0.739590	 2.349596	 2.226198	
C 	  1.432817	 1.992721	 3.382285	
C 	  2.824329	 1.972399	 3.374824	
C 	  3.507233	 2.293879	 2.193964	
C 	  2.812084	 2.655811	 1.030931	
C 	  1.425659	 2.698536	 1.059459	
H 	  0.887352	 1.731155	 4.291173	
H 	  3.378304	 1.715645	 4.278177	
H 	  3.354272	 2.879425	 0.112279	
H 	  0.870186	 2.994941	 0.168781	
C 	 14.484053	-6.334595	 4.774977	
C 	 14.518585	-6.447274	 3.388775	
C 	 13.651448	-5.701150	 2.577605	
C 	 12.715271	-4.829848	 3.120552	
H 	 15.163905	-6.906796	 5.402614	
H 	 15.232717	-7.122380	 2.922182	
H 	 13.717363	-5.806616	 1.494589	
H 	 12.055300	-4.241905	 2.489473	
C 	 13.559492	-5.470091	 5.348173	
C 	 12.666782	-4.728702	 4.509740	
N 	 11.836677	-3.932664	 5.324569	
C 	 13.258397	-5.105103	 6.712530	
C 	 12.184956	-4.151950	 6.660959	
C 	 11.632551	-3.608468	 7.824020	
C 	 12.169571	-4.006492	 9.037008	
C 	 13.230272	-4.932669	 9.096137	
C 	 13.779057	-5.490282	 7.937183	
H 	 10.802855	-2.908033	 7.773884	
H 	 11.763930	-3.597665	 9.965063	
H 	 14.595768	-6.210468	 7.994429	
C 	  8.792808	-1.374963	 3.983422	
C 	  9.742247	-0.913646	 4.900661	
C 	 10.752593	-1.756032	 5.347416	
C 	 10.805168	-3.074037	 4.874250	
C 	  9.845710	-3.552207	 3.972903	
C 	  8.844186	-2.696128	 3.529840	
H 	  9.685022	 0.111394	 5.269554	
H 	 11.500417	-1.392057	 6.051675	
H 	  9.875799	-4.587030	 3.633083	
H 	  8.095064	-3.055253	 2.823433	
N 	 14.166450	-5.607029	11.400358	
C 	 13.746616	-5.306261	10.363991	
C 	 -4.756709	-0.202412	 1.879004	
C 	 -5.469912	-1.416891	 1.867923	
C 	 -4.828556	-2.610241	 2.114937	
C 	 -3.377607	-0.172915	 1.953105	
H 	 -5.339609	 0.719234	 1.827309	
H 	 -6.540292	-1.393855	 1.662532	
C 	 -2.675573	-1.420855	 2.031339	
C 	 -3.410999	-2.604749	 2.304828	
C 	 -2.699243	-3.756533	 2.751562	
C 	 -1.334514	-3.823834	 2.660863	
C 	 -0.620516	-2.733282	 2.103794	
C 	 -1.271165	-1.559432	 1.832020	
H 	 -3.264272	-4.576884	 3.196987	
H 	 -0.777563	-4.692882	 3.005448	
H 	  0.444482	-2.838526	 1.905831	
H 	 -0.706675	-0.711719	 1.430179	
C 	 -5.772134	-6.262336	 1.875140	
C 	 -5.099378	-5.051577	 1.660040	
C 	 -5.617566	-3.850664	 2.151510	
C 	 -6.905463	-3.835790	 2.703321	
C 	 -7.652537	-5.008715	 2.760762	
C 	 -7.080273	-6.218086	 2.372181	
H 	 -4.151631	-5.049059	 1.118685	
H 	 -7.323992	-2.911251	 3.097995	
H 	 -8.674297	-4.985096	 3.142497	
H 	 -7.657899	-7.133401	 2.482192	
C 	 -3.667564	-10.016844	 1.857292	
C 	 -2.983629	-8.796091	 1.919235	
C 	 -3.666235	-7.584960	 1.851893	
C 	 -5.062854	-7.543749	 1.736577	
C 	 -5.745017	-8.761305	 1.630231	
C 	 -5.059843	-9.969625	 1.698450	
H 	 -1.901390	-8.781066	 2.042712	
H 	 -3.093850	-6.657487	 1.914902	
H 	 -6.827268	-8.782230	 1.507871	
H 	 -5.630256	-10.897805	 1.642050	
C 	 -1.684207	-13.823486	 1.921393	
C 	 -3.074156	-13.747443	 1.983759	
C 	 -3.706896	-12.508179	 2.005346	
C 	 -2.972990	-11.313831	 1.936553	
C 	 -1.574523	-11.407629	 1.917490	
C 	 -0.937563	-12.647681	 1.906712	
H 	 -1.188510	-14.791582	 1.891448	
H 	 -3.668611	-14.659691	 2.014274	
H 	 -4.794424	-12.482666	 2.077481	
H 	 -0.962829	-10.507159	 1.908999	
H 	  0.150698	-12.698728	 1.884552	
