173
2(9-1(9-1(22-1)))(5-2(16-1(23-1)))
C 	 -0.937385	 2.398087	 2.151820	
C 	 -1.628135	 3.623155	 2.138025	
C 	 -3.017849	 3.609342	 2.154151	
C 	 -3.688448	 2.392958	 2.180364	
C 	 -2.943766	 1.197794	 2.181883	
H 	 -1.091943	 4.566852	 2.116086	
H 	 -3.577844	 4.543779	 2.145285	
H 	 -4.773344	 2.371552	 2.196910	
N 	 -1.593705	 1.215625	 2.169981	
C 	  1.284676	 3.527446	 2.126827	
C 	  0.535755	 2.338296	 2.154696	
C 	  1.186406	 1.101066	 2.195232	
C 	  2.580372	 1.022324	 2.214930	
H 	  0.795570	 4.501666	 2.082255	
H 	  0.593587	 0.181572	 2.211912	
H 	  3.080750	 0.058120	 2.242329	
C 	  3.308764	 2.199132	 2.198432	
C 	  2.663829	 3.455767	 2.157811	
C 	  3.691746	 4.592459	 2.152247	
C 	  5.013469	 3.804146	 2.134679	
C 	  4.748133	 2.415882	 2.195901	
C 	  5.779217	 1.497713	 2.231789	
C 	  7.092764	 1.971175	 2.199870	
C 	  7.384553	 3.337260	 2.107180	
C 	  6.315936	 4.255974	 2.067799	
H 	  5.565928	 0.432236	 2.284251	
H 	  7.895282	 1.237019	 2.248201	
H 	  6.524076	 5.321239	 1.978125	
C 	  3.448774	 6.980510	 5.768544	
C 	  4.503489	 7.149472	 4.876251	
C 	  4.584051	 6.357680	 3.735181	
C 	  3.602542	 5.407932	 3.433714	
C 	  2.575305	 5.217121	 4.362540	
C 	  2.496958	 5.997510	 5.515480	
H 	  3.376050	 7.602613	 6.655339	
H 	  5.269251	 7.898467	 5.066088	
H 	  5.442633	 6.491483	 3.077834	
H 	  1.822116	 4.442709	 4.225007	
H 	  1.686614	 5.831703	 6.222704	
C 	  3.427034	 6.990497	-1.450141	
C 	  4.353166	 7.303199	-0.459469	
C 	  4.426840	 6.530134	 0.695191	
C 	  3.582690	 5.433372	 0.892376	
C 	  2.680601	 5.109740	-0.125850	
C 	  2.596173	 5.886834	-1.280125	
H 	  3.359023	 7.598523	-2.347067	
H 	  5.024804	 8.150301	-0.582199	
H 	  5.167246	 6.803038	 1.444901	
H 	  2.035074	 4.234721	-0.051657	
H 	  1.878452	 5.624466	-2.054736	
C 	  9.100603	 5.174327	 2.045920	
C 	  8.784130	 3.801173	 2.059497	
C 	  9.832060	 2.870472	 2.030518	
C 	 11.169546	 3.265988	 2.009543	
H 	  8.306580	 5.921841	 2.049652	
H 	  9.617226	 1.803069	 2.020353	
H 	 11.970119	 2.529721	 1.989505	
C 	 11.459966	 4.618179	 2.009273	
C 	 10.425458	 5.579291	 2.022959	
C 	 11.022958	 6.996195	 1.995429	
C 	 12.532336	 6.697077	 1.917897	
C 	 12.744413	 5.298668	 1.965551	
C 	 14.022190	 4.773286	 1.954588	
C 	 15.105221	 5.651183	 1.881669	
C 	 14.927131	 7.037587	 1.790870	
C 	 13.613412	 7.552181	 1.809457	
H 	 14.178502	 3.697601	 2.000554	
H 	 16.108504	 5.227467	 1.893824	
H 	 13.460558	 8.626478	 1.729835	
C 	 10.099874	 9.197787	 5.617719	
C 	 11.034633	 9.688117	 4.710170	
C 	 11.346183	 8.958751	 3.566774	
C 	 10.714045	 7.743435	 3.283079	
C 	  9.822299	 7.236135	 4.232272	
C 	  9.511752	 7.958680	 5.383204	
H 	  9.843316	 9.771063	 6.503378	
H 	 11.526381	10.640937	 4.891982	
H 	 12.107465	 9.355274	 2.896467	
H 	  9.365070	 6.254813	 4.111600	
H 	  8.807824	 7.545681	 6.103279	
C 	  9.770542	 9.189910	-1.526902	
C 	 10.625783	 9.775561	-0.597768	
C 	 11.027596	 9.062677	 0.528124	
C 	 10.586086	 7.755529	 0.755418	
C 	  9.770883	 7.161402	-0.212498	
C 	  9.353772	 7.876130	-1.333884	
H 	  9.441216	 9.750378	-2.396591	
H 	 10.984123	10.791299	-0.747630	
H 	 11.701583	 9.550263	 1.229298	
H 	  9.457647	 6.120929	-0.124881	
H 	  8.701397	 7.400049	-2.063439	
C 	 16.097211	 7.930609	 1.675007	
C 	 17.384720	 7.395117	 1.542156	
C 	 18.521026	 8.203319	 1.441258	
C 	 15.949230	 9.333102	 1.690947	
H 	 17.530599	 6.315410	 1.511779	
H 	 19.511236	 7.764158	 1.346967	
H 	 14.964823	 9.785416	 1.789906	
C 	 18.358535	 9.574744	 1.461147	
C 	 17.064743	10.138741	 1.578458	
C 	 17.161169	11.661162	 1.549414	
C 	 16.441097	12.224389	 0.324219	
C 	 16.650765	12.269692	 2.854515	
C 	 18.662531	11.888850	 1.418499	
C 	 19.342765	10.647722	 1.370401	
C 	 20.720255	10.598220	 1.255454	
C 	 21.425346	11.805547	 1.184789	
C 	 20.755888	13.024806	 1.229063	
C 	 19.360361	13.077542	 1.347287	
H 	 21.241416	 9.645837	 1.221230	
H 	 22.509272	11.785709	 1.093941	
H 	 21.320645	13.953166	 1.171531	
H 	 18.846888	14.034269	 1.381345	
H 	 16.791841	13.356810	 2.868887	
H 	 15.585921	12.065648	 3.009103	
H 	 17.195755	11.859716	 3.716284	
H 	 16.571511	13.310171	 0.249413	
H 	 16.840977	11.784427	-0.600204	
H 	 15.366663	12.013930	 0.351775	
C 	 -3.495158	-2.549109	 2.124894	
C 	 -2.861661	-1.304281	 2.203765	
C 	 -3.608089	-0.120507	 2.174251	
C 	 -5.004870	-0.193132	 2.115470	
C 	 -5.643585	-1.426060	 2.043411	
C 	 -4.892799	-2.595849	 2.026380	
H 	 -1.773186	-1.244189	 2.287585	
H 	 -5.610433	 0.711236	 2.122144	
H 	 -6.730716	-1.475033	 1.993977	
H 	 -5.405577	-3.552576	 1.930119	
N 	 -3.103584	-7.471797	 2.811062	
C 	 -2.073516	-8.285479	 2.564776	
N 	 -0.954040	-7.556434	 2.082800	
C 	 -2.685965	-6.174080	 2.506038	
C 	 -1.331554	-6.206990	 2.042353	
C 	 -0.689471	-5.042722	 1.616953	
C 	 -1.410794	-3.861908	 1.661682	
C 	 -2.744702	-3.812193	 2.132638	
C 	 -3.379740	-4.968113	 2.577125	
H 	  0.330670	-5.073550	 1.250096	
H 	 -0.939440	-2.938994	 1.313591	
H 	 -4.395418	-4.964632	 2.973260	
C 	  2.963303	-8.932656	 1.534620	
C 	  2.710319	-7.871485	 2.403228	
C 	  1.410901	-7.410031	 2.581918	
C 	  0.365920	-8.024023	 1.879892	
C 	  0.610854	-9.083327	 1.000078	
C 	  1.917258	-9.534705	 0.836539	
H 	  3.982095	-9.287750	 1.397687	
H 	  3.527008	-7.400931	 2.948495	
H 	  1.198666	-6.590772	 3.267120	
H 	 -0.211265	-9.549077	 0.458834	
H 	  2.121404	-10.361293	 0.156661	
C 	 -2.215624	-12.523497	 2.802152	
C 	 -1.088590	-11.841541	 3.276786	
C 	 -1.031823	-10.453315	 3.219022	
C 	 -2.109722	-9.734448	 2.698365	
C 	 -3.268013	-10.403801	 2.288472	
C 	 -3.309612	-11.791769	 2.323325	
H 	 -0.247582	-12.393591	 3.691730	
H 	 -0.148516	-9.925927	 3.577978	
H 	 -4.131960	-9.831994	 1.941233	
H 	 -4.199192	-12.306828	 1.966711	
C 	 -2.352500	-16.784085	 2.711488	
C 	 -3.518816	-16.050640	 2.920744	
C 	 -3.470438	-14.661227	 2.975989	
C 	 -2.257638	-13.988860	 2.792524	
C 	 -1.090896	-14.730262	 2.577812	
C 	 -1.137899	-16.121258	 2.548576	
H 	 -2.389720	-17.869673	 2.680881	
H 	 -4.469615	-16.563010	 3.041106	
H 	 -4.382480	-14.097757	 3.165488	
H 	 -0.142757	-14.220207	 2.422709	
H 	 -0.225312	-16.692265	 2.397132	
