119
2(16-1(6-1(23-1)))(8-2(14-1(28-1)))
C 	 -0.851779	 2.445875	 2.585321	
C 	 -1.676997	 3.575585	 2.461745	
C 	 -3.044901	 3.381376	 2.278357	
C 	 -3.563617	 2.091699	 2.254309	
C 	 -2.684819	 1.011352	 2.455187	
H 	 -1.264717	 4.579508	 2.501643	
H 	 -3.706765	 4.235933	 2.144750	
H 	 -4.617318	 1.906411	 2.075050	
N 	 -1.365570	 1.192402	 2.621868	
N 	  3.655393	 0.428396	 3.181300	
C 	  4.849572	 0.895086	 2.798877	
N 	  4.737113	 2.211615	 2.285313	
C 	  2.715012	 1.419053	 2.907214	
C 	  3.378784	 2.551907	 2.329244	
C 	  2.654743	 3.656679	 1.873342	
C 	  1.278709	 3.606183	 2.006696	
C 	  0.618631	 2.499680	 2.593213	
C 	  1.329504	 1.401800	 3.065116	
H 	  3.154178	 4.501466	 1.409584	
H 	  0.678113	 4.430944	 1.620703	
H 	  0.836529	 0.531459	 3.512481	
C 	  7.744282	 4.885580	 1.119467	
C 	  6.963846	 5.163276	 2.241386	
C 	  5.970844	 4.275436	 2.643518	
C 	  5.773554	 3.101291	 1.905542	
C 	  6.563535	 2.804247	 0.789783	
C 	  7.540563	 3.712988	 0.393060	
H 	  8.520420	 5.585359	 0.814487	
H 	  7.128609	 6.078528	 2.809706	
H 	  5.359840	 4.489631	 3.521069	
H 	  6.414121	 1.875273	 0.239925	
H 	  8.141077	 3.505925	-0.493230	
C 	  8.416155	-0.172475	 3.424648	
C 	  7.297592	 0.638690	 3.224652	
C 	  6.056343	 0.087088	 2.888732	
C 	  5.886933	-1.299387	 2.717243	
H 	  9.379195	 0.244445	 3.698715	
H 	  7.392023	 1.719079	 3.351724	
H 	  4.908405	-1.710188	 2.454450	
C 	  6.978149	-2.119609	 2.925081	
C 	  8.224394	-1.534697	 3.283425	
O 	  9.197340	-2.496554	 3.513776	
C 	  8.549313	-3.717204	 3.339348	
C 	  7.193105	-3.552322	 2.953821	
C 	  6.406268	-4.673212	 2.757127	
C 	  6.960513	-5.941249	 3.000409	
C 	  8.307440	-6.064533	 3.377238	
C 	  9.132916	-4.951009	 3.545474	
H 	  5.374578	-4.571611	 2.424425	
H 	  8.724330	-7.057077	 3.557398	
H 	 10.173338	-5.048083	 3.836979	
C 	  4.490147	-9.444363	 2.960903	
C 	  5.838506	-9.524741	 2.594964	
C 	  6.640046	-8.387082	 2.575367	
C 	  6.113583	-7.137868	 2.923450	
C 	  4.754362	-7.048970	 3.246652	
C 	  3.957487	-8.185633	 3.267799	
H 	  6.274507	-10.484426	 2.323401	
H 	  7.686858	-8.473988	 2.285411	
H 	  4.311587	-6.085526	 3.499146	
H 	  2.907638	-8.093292	 3.540909	
C 	  2.009773	-12.862615	 3.570161	
C 	  1.437433	-11.633762	 3.249311	
C 	  2.249428	-10.534809	 2.985541	
C 	  3.643769	-10.638400	 3.079777	
C 	  4.207089	-11.890003	 3.357182	
C 	  3.396078	-12.995845	 3.597454	
H 	  1.377118	-13.713677	 3.802981	
H 	  0.354142	-11.529737	 3.216926	
H 	  1.784202	-9.589854	 2.711495	
H 	  5.287517	-12.005858	 3.403705	
H 	  3.846005	-13.962326	 3.820122	
C 	 -4.277738	-0.606732	 3.323206	
C 	 -4.905208	-1.869161	 3.345734	
C 	 -4.476118	-2.865930	 2.501348	
C 	 -3.215276	-0.367006	 2.481774	
H 	 -4.663364	 0.181125	 3.969959	
H 	 -5.747784	-2.024819	 4.022255	
C 	 -2.707953	-1.402808	 1.642316	
C 	 -3.372927	-2.654476	 1.624376	
C 	 -2.934604	-3.657030	 0.715658	
C 	 -1.841793	-3.448336	-0.085077	
C 	 -1.127619	-2.228458	-0.011823	
C 	 -1.563010	-1.226603	 0.815114	
H 	 -3.482641	-4.595750	 0.650787	
H 	 -1.517094	-4.210920	-0.788837	
H 	 -0.231449	-2.098069	-0.615849	
H 	 -1.014255	-0.283046	 0.860092	
C 	 -4.934089	-7.838230	 2.914548	
C 	 -3.630387	-7.974495	 3.313545	
C 	 -2.806854	-6.835808	 3.502266	
C 	 -3.291012	-5.573932	 3.259377	
H 	 -5.588338	-8.698405	 2.775588	
H 	 -3.208765	-8.964643	 3.489058	
H 	 -1.780127	-6.980589	 3.833496	
H 	 -2.660026	-4.694126	 3.402232	
C 	 -4.621915	-5.398664	 2.813234	
C 	 -5.455749	-6.536052	 2.668780	
N 	 -6.769013	-6.416383	 2.286700	
C 	 -7.270616	-5.207295	 2.056270	
N 	 -6.498762	-4.052349	 2.132855	
C 	 -5.223736	-4.138946	 2.478975	
C 	 -9.093927	-3.709341	 1.424033	
C 	 -10.461164	-3.369846	 1.315464	
C 	 -11.423174	-4.303137	 1.599168	
C 	 -8.699185	-4.993052	 1.749362	
H 	 -8.350445	-2.917831	 1.263029	
H 	 -10.732296	-2.355077	 1.032348	
H 	 -12.481086	-4.041832	 1.584804	
C 	 -9.686311	-6.024115	 1.869285	
C 	 -11.050031	-5.641690	 1.898293	
C 	 -12.048079	-6.608945	 2.199956	
C 	 -11.718813	-7.929935	 2.352332	
C 	 -10.377385	-8.339894	 2.169594	
C 	 -9.393008	-7.414835	 1.933903	
H 	 -13.078412	-6.280729	 2.302125	
H 	 -12.473971	-8.672635	 2.595477	
H 	 -10.143519	-9.400653	 2.215481	
H 	 -8.370148	-7.762811	 1.763207	
