185
2(17-1(12-1(26-1)))(11-2(13-1(22-1)))
C 	 -0.740852	 2.186611	 2.011444	
C 	 -1.252718	 3.343406	 1.374221	
C 	 -2.621942	 3.422517	 1.169164	
C 	 -3.443939	 2.346263	 1.500844	
C 	 -2.854067	 1.177743	 2.006809	
H 	 -0.590021	 4.134393	 1.039116	
H 	 -3.054231	 4.324479	 0.733851	
H 	 -4.512431	 2.407251	 1.337562	
N 	 -1.530841	 1.126536	 2.295635	
C 	  0.866150	-0.330955	 2.602149	
C 	  1.605300	-1.486962	 2.361132	
C 	  2.874434	-1.399396	 1.802283	
C 	  3.438742	-0.152590	 1.542977	
H 	 -0.125240	-0.413160	 3.062144	
H 	  1.178766	-2.455034	 2.615404	
H 	  3.439531	-2.304135	 1.587145	
H 	  4.443481	-0.098358	 1.122160	
C 	  2.726236	 1.018683	 1.824359	
C 	  1.381421	 0.924581	 2.275475	
N 	  0.609502	 2.108081	 2.423327	
N 	  3.347652	 2.286286	 1.623881	
C 	  2.679781	 3.419293	 2.164809	
C 	  1.328462	 3.321033	 2.581556	
C 	  0.715534	 4.413145	 3.204717	
C 	  1.384591	 5.628026	 3.310657	
C 	  2.679468	 5.752866	 2.817598	
C 	  3.328692	 4.655951	 2.260483	
H 	 -0.294014	 4.314915	 3.609050	
H 	  0.890715	 6.475265	 3.778385	
H 	  3.195934	 6.708793	 2.885324	
H 	  4.349672	 4.767585	 1.901138	
C 	 12.131232	 3.908108	 2.319363	
C 	 11.753330	 5.243246	 2.428581	
C 	 10.401200	 5.614833	 2.447892	
C 	  9.386867	 4.669925	 2.356491	
H 	 13.180275	 3.624491	 2.311639	
H 	 12.515894	 6.016025	 2.502889	
H 	 10.142023	 6.668942	 2.538755	
H 	  8.339425	 4.951885	 2.380873	
C 	 11.142846	 2.936732	 2.221379	
C 	  9.767900	 3.334119	 2.240585	
N 	  8.960097	 2.187384	 2.160858	
C 	 11.161237	 1.496405	 2.094548	
C 	  9.794511	 1.062245	 2.052517	
C 	  9.462652	-0.285701	 1.922539	
C 	 10.506394	-1.196687	 1.821063	
C 	 11.850104	-0.786027	 1.861305	
C 	 12.182888	 0.561786	 2.003334	
H 	  8.427294	-0.609779	 1.901255	
H 	 10.286161	-2.259078	 1.713479	
H 	 13.224800	 0.875016	 2.033273	
C 	  4.784089	 2.281182	 1.800189	
C 	  5.373495	 1.730055	 2.946056	
C 	  6.756786	 1.681307	 3.061837	
C 	  7.547778	 2.211646	 2.034487	
C 	  6.962323	 2.791768	 0.902080	
C 	  5.577041	 2.814927	 0.778927	
H 	  4.741888	 1.335973	 3.742941	
H 	  7.227786	 1.250967	 3.946287	
H 	  7.593851	 3.210223	 0.117589	
H 	  5.105796	 3.243296	-0.106960	
N 	 15.951128	-4.692519	 1.515379	
C 	 14.954492	-8.540093	 0.143322	
C 	 16.210217	-8.002089	-0.132827	
C 	 16.550407	-6.730971	 0.314253	
C 	 15.619989	-5.986848	 1.057118	
C 	 14.353458	-6.526753	 1.341032	
C 	 14.032837	-7.798450	 0.881364	
H 	 14.694803	-9.532220	-0.216132	
H 	 16.932687	-8.578931	-0.708016	
H 	 17.526539	-6.309862	 0.081784	
H 	 13.631416	-5.956048	 1.922029	
H 	 13.053998	-8.221394	 1.103567	
C 	 12.915540	-1.790383	 1.760533	
C 	 13.008735	-2.612794	 0.634341	
C 	 14.016273	-3.564569	 0.539796	
C 	 14.937881	-3.701760	 1.588386	
C 	 14.853838	-2.876508	 2.719334	
C 	 13.843297	-1.927023	 2.797655	
H 	 12.290119	-2.501545	-0.177273	
H 	 14.095281	-4.200696	-0.340273	
H 	 15.570142	-2.991726	 3.530513	
H 	 13.762167	-1.291601	 3.679455	
C 	 19.914297	-3.709612	 2.521700	
C 	 19.102952	-2.772882	 1.883058	
C 	 17.789386	-3.083742	 1.549277	
C 	 17.282835	-4.357751	 1.854326	
C 	 18.094999	-5.301978	 2.503026	
C 	 19.404991	-4.970637	 2.827731	
H 	 20.940048	-3.458689	 2.779970	
H 	 19.504368	-1.790486	 1.637288	
H 	 17.162080	-2.348996	 1.048304	
H 	 17.695918	-6.282510	 2.756000	
H 	 20.036196	-5.703921	 3.327444	
C 	 -8.246475	-0.957265	 2.163472	
C 	 -9.454784	-1.647242	 2.111811	
C 	 -9.490687	-3.047829	 2.136057	
C 	 -8.325654	-3.804060	 2.201978	
H 	 -8.217590	 0.129407	 2.155536	
H 	 -10.389344	-1.093476	 2.053219	
H 	 -10.453786	-3.556065	 2.104239	
H 	 -8.358188	-4.888886	 2.237341	
C 	 -7.064005	-1.683296	 2.224400	
C 	 -7.115208	-3.114458	 2.232732	
N 	 -5.799389	-3.614753	 2.297229	
C 	 -5.667941	-1.307192	 2.269097	
C 	 -4.914486	-2.526199	 2.313534	
C 	 -3.519946	-2.516832	 2.333888	
C 	 -2.888686	-1.284372	 2.272279	
C 	 -3.608553	-0.074016	 2.198266	
C 	 -5.006095	-0.086597	 2.231406	
H 	 -2.951282	-3.439565	 2.379350	
H 	 -1.793193	-1.245294	 2.269692	
H 	 -5.578754	 0.839883	 2.218998	
C 	 -4.827989	-7.693230	 2.329567	
C 	 -4.195583	-6.819867	 3.217158	
C 	 -4.502429	-5.464613	 3.203738	
C 	 -5.441141	-4.982899	 2.281303	
C 	 -6.035073	-5.845553	 1.349824	
C 	 -5.735560	-7.201625	 1.388702	
H 	 -3.467119	-7.211679	 3.927267	
H 	 -4.029730	-4.787587	 3.913811	
H 	 -6.715210	-5.454303	 0.594454	
H 	 -6.201639	-7.885893	 0.679580	
C 	 -1.995485	-15.056999	 2.104265	
C 	 -0.735768	-15.505615	 1.730280	
C 	  0.231684	-14.612362	 1.262640	
C 	 -0.087130	-13.255070	 1.178386	
H 	 -2.733321	-15.776414	 2.450252	
H 	 -0.501846	-16.566222	 1.811320	
H 	  0.653829	-12.552824	 0.794064	
C 	 -1.335201	-12.785326	 1.569030	
C 	 -2.309549	-13.688145	 2.036602	
C 	 -1.593509	-11.319455	 1.476549	
H 	 -0.813001	-10.768568	 2.055452	
C 	 -2.947049	-10.917097	 1.956901	
C 	 -3.899544	-11.858686	 2.397141	
C 	 -5.165804	-11.410666	 2.815377	
C 	 -5.469796	-10.055147	 2.793789	
C 	 -4.521346	-9.125375	 2.366148	
C 	 -3.262845	-9.564051	 1.954723	
H 	 -5.914994	-12.119538	 3.161035	
H 	 -6.452912	-9.717709	 3.121154	
H 	 -2.522007	-8.836211	 1.621981	
C 	 -6.441535	-16.072516	 3.607210	
C 	 -6.520088	-15.489977	 2.342809	
C 	 -5.583317	-14.538716	 1.948171	
C 	 -4.566582	-14.174469	 2.838190	
C 	 -4.492945	-14.737144	 4.117630	
C 	 -5.436032	-15.689461	 4.493966	
H 	 -7.166583	-16.829248	 3.902430	
H 	 -7.314615	-15.782816	 1.657945	
H 	 -5.632200	-14.084464	 0.959359	
H 	 -3.701415	-14.433443	 4.802096	
H 	 -5.385938	-16.137120	 5.485626	
N 	 -3.575288	-13.222466	 2.428474	
H 	 -1.462944	-10.984597	 0.418436	
C 	  1.567941	-15.066731	 0.870055	
C 	  1.730776	-16.252417	 0.151424	
C 	  3.001507	-16.696025	-0.226844	
C 	  2.687017	-14.286141	 1.215791	
H 	  0.857314	-16.837972	-0.130424	
H 	  3.120871	-17.625175	-0.778034	
H 	  2.560213	-13.367004	 1.782456	
C 	  4.099011	-15.924481	 0.111249	
C 	  3.937239	-14.712161	 0.826505	
C 	  5.286570	-14.037281	 1.036324	
C 	  5.325029	-12.691342	 0.311263	
C 	  5.610157	-13.883979	 2.520916	
C 	  6.239438	-15.023918	 0.375776	
C 	  5.520450	-16.123148	-0.156033	
C 	  6.178624	-17.153129	-0.803112	
C 	  7.571075	-17.078045	-0.926070	
C 	  8.275498	-15.995942	-0.407655	
C 	  7.611380	-14.953670	 0.252875	
H 	  5.630035	-17.999853	-1.206758	
H 	  8.104366	-17.878167	-1.435809	
H 	  9.357472	-15.955811	-0.514814	
H 	  8.170651	-14.113438	 0.654951	
H 	  6.604810	-13.448435	 2.668228	
H 	  4.883159	-13.238766	 3.025981	
H 	  5.599603	-14.855954	 3.030285	
H 	  6.312709	-12.224414	 0.389134	
H 	  5.103330	-12.814679	-0.756602	
H 	  4.588561	-11.993931	 0.724370	
