151
2(13-1(10-1(20-1)))(10-2(7-1(32-1)))
C 	 -0.815589	 2.294025	 2.147399	
C 	 -1.472580	 3.540919	 2.182131	
C 	 -2.859070	 3.572398	 2.148073	
C 	 -3.571211	 2.380629	 2.108937	
C 	 -2.864816	 1.163844	 2.135414	
H 	 -0.907140	 4.464129	 2.242892	
H 	 -3.388018	 4.521877	 2.153857	
H 	 -4.654760	 2.398512	 2.059662	
N 	 -1.509253	 1.132767	 2.141845	
C 	  7.025652	 3.344506	 1.640625	
C 	  7.748814	 4.459880	 1.236709	
C 	  7.104566	 5.629515	 0.816777	
C 	  5.704556	 5.637525	 0.806764	
H 	  7.567130	 2.450287	 1.943564	
H 	  8.837345	 4.408836	 1.256461	
H 	  5.177575	 6.526568	 0.458177	
C 	  4.959077	 4.538433	 1.225349	
C 	  5.620091	 3.372453	 1.657179	
C 	  3.465965	 4.631554	 1.208231	
H 	  3.150204	 5.486706	 1.856870	
C 	  2.767643	 3.389147	 1.664813	
C 	  3.480829	 2.254955	 2.108203	
C 	  2.762828	 1.135239	 2.570071	
C 	  1.372841	 1.139128	 2.577957	
C 	  0.657852	 2.251923	 2.125324	
C 	  1.377877	 3.362678	 1.663568	
H 	  3.289697	 0.254968	 2.932288	
H 	  0.830942	 0.262336	 2.944294	
H 	  0.842846	 4.237433	 1.288929	
C 	  6.992825	-1.201613	 3.269026	
C 	  6.341792	-1.166288	 2.037137	
C 	  5.637966	-0.030510	 1.643451	
C 	  5.591075	 1.075966	 2.498783	
C 	  6.237041	 1.046460	 3.740390	
C 	  6.938837	-0.095428	 4.116625	
H 	  7.544036	-2.092003	 3.569291	
H 	  6.386643	-2.030352	 1.375774	
H 	  5.129924	-0.000193	 0.680315	
H 	  6.190426	 1.911875	 4.400538	
H 	  7.448759	-0.124367	 5.078481	
N 	  4.882204	 2.258420	 2.098691	
H 	  3.125848	 4.889644	 0.175562	
N 	 10.054561	10.257209	-0.728477	
C 	  7.862162	 6.817374	 0.402689	
C 	  9.143812	 6.705475	-0.150618	
C 	  9.871473	 7.829368	-0.522441	
C 	  9.316006	 9.108031	-0.360771	
C 	  8.022198	 9.234952	 0.172203	
C 	  7.317327	 8.100517	 0.552021	
H 	  9.590837	 5.723057	-0.298664	
H 	 10.874557	 7.717952	-0.930272	
H 	  7.566126	10.217462	 0.285914	
H 	  6.319552	 8.224125	 0.973296	
C 	 12.656982	10.120769	-4.038280	
C 	 11.384807	 9.546389	-4.112326	
C 	 10.523766	 9.595945	-3.023337	
C 	 10.938522	10.219857	-1.836751	
C 	 12.210582	10.807894	-1.757892	
C 	 13.060204	10.750619	-2.857559	
H 	 11.058491	 9.064825	-5.033382	
H 	  9.525967	 9.164221	-3.086525	
H 	 12.535361	11.300898	-0.842483	
H 	 14.054450	11.193696	-2.795803	
C 	  9.676914	13.763315	 1.557422	
C 	  9.829611	13.844961	 0.173681	
C 	  9.970001	12.693840	-0.593361	
C 	  9.947903	11.440284	 0.038383	
C 	  9.810810	11.353308	 1.432658	
C 	  9.674190	12.516471	 2.180629	
H 	  9.560498	14.668589	 2.148573	
H 	  9.832223	14.819113	-0.313051	
H 	 10.084817	12.762315	-1.673399	
H 	  9.818109	10.380093	 1.920091	
H 	  9.567671	12.448547	 3.262002	
C 	 13.808378	11.239444	-5.923320	
C 	 13.559974	10.073653	-5.197543	
C 	 14.165062	 8.857382	-5.557649	
C 	 15.020922	 8.766987	-6.649190	
H 	 13.343439	12.181992	-5.640030	
H 	 13.962189	 7.964947	-4.963036	
H 	 15.501511	 7.828561	-6.911627	
C 	 14.655451	11.175807	-7.020548	
C 	 15.253884	 9.926559	-7.388506	
N 	 16.066140	10.130284	-8.522371	
C 	 15.124397	12.163927	-7.965352	
C 	 15.989838	11.489176	-8.885809	
C 	 16.587803	12.163281	-9.950713	
C 	 16.335941	13.525116	-10.069917	
C 	 15.509105	14.200764	-9.160208	
C 	 14.895754	13.526206	-8.109376	
H 	 17.217588	11.638082	-10.663380	
H 	 16.792523	14.080206	-10.890425	
H 	 15.345183	15.269188	-9.283026	
H 	 14.249765	14.047806	-7.406503	
C 	 18.304582	 7.175262	-10.497606	
C 	 18.895757	 8.396228	-10.173878	
C 	 18.162225	 9.383217	-9.522036	
C 	 16.820194	 9.140394	-9.193774	
C 	 16.218420	 7.919342	-9.529592	
C 	 16.968468	 6.941146	-10.175597	
H 	 18.885880	 6.405948	-11.000976	
H 	 19.940853	 8.577084	-10.428055	
H 	 18.635179	10.328499	-9.258896	
H 	 15.167918	 7.743154	-9.303097	
H 	 16.506186	 5.987806	-10.432969	
N 	 -5.743760	-3.749156	 2.181191	
C 	 -3.600253	-0.113339	 2.155871	
C 	 -4.988697	-0.129673	 2.348525	
C 	 -5.701579	-1.319733	 2.360321	
C 	 -5.021067	-2.535298	 2.187855	
C 	 -3.627219	-2.536683	 2.006546	
C 	 -2.933651	-1.333473	 1.983980	
H 	 -5.546192	 0.795693	 2.500810	
H 	 -6.780049	-1.307587	 2.514403	
H 	 -3.094473	-3.477476	 1.872929	
H 	 -1.850577	-1.331874	 1.823759	
C 	 -9.642229	-3.856170	 0.582309	
C 	 -8.605660	-3.220212	-0.108692	
C 	 -7.321733	-3.183555	 0.420348	
C 	 -7.064407	-3.784438	 1.661735	
C 	 -8.097265	-4.425466	 2.360786	
C 	 -9.377143	-4.455276	 1.817460	
H 	 -8.798518	-2.759449	-1.076991	
H 	 -6.509681	-2.704639	-0.125275	
H 	 -7.899288	-4.895073	 3.323015	
H 	 -10.181646	-4.943721	 2.367217	
C 	 -4.164439	-7.145497	 4.077940	
C 	 -4.946383	-7.282882	 2.931802	
C 	 -5.484811	-6.165048	 2.305110	
C 	 -5.225736	-4.891054	 2.833891	
C 	 -4.451179	-4.746612	 3.995040	
C 	 -3.926124	-5.878087	 4.607764	
H 	 -3.741982	-8.024965	 4.557646	
H 	 -5.135378	-8.272258	 2.518393	
H 	 -6.093720	-6.271553	 1.409097	
H 	 -4.272876	-3.757707	 4.414475	
H 	 -3.328431	-5.769483	 5.511414	
C 	 -11.696167	-2.728867	-0.265045	
C 	 -12.977492	-2.785309	-0.806193	
C 	 -13.571449	-4.019412	-1.087040	
C 	 -12.867372	-5.196171	-0.819466	
C 	 -11.588565	-5.139648	-0.272395	
C 	 -10.994347	-3.906308	 0.008979	
H 	 -11.243024	-1.762673	-0.048363	
H 	 -13.518281	-1.862933	-1.008152	
H 	 -13.315565	-6.163623	-1.035411	
H 	 -11.047002	-6.062275	-0.069117	
C 	 -14.942204	-4.072791	-1.673422	
H 	 -14.924294	-3.821083	-2.745081	
H 	 -15.404545	-5.065669	-1.587185	
H 	 -15.625795	-3.361747	-1.187485	
