147
2(11-1(10-1(29-1)))(17-2(8-1(24-1)))
C 	 -0.847587	 2.309948	 1.877045	
C 	 -1.606303	 3.396808	 1.421275	
C 	 -2.987484	 3.243938	 1.304569	
C 	 -3.593138	 2.038068	 1.627189	
C 	 -2.765465	 0.973937	 2.053758	
H 	 -1.132586	 4.332076	 1.150612	
H 	 -3.596034	 4.075227	 0.947235	
H 	 -4.667369	 1.913944	 1.534402	
N 	 -1.428315	 1.125600	 2.181986	
C 	  3.513293	-1.303655	 2.536368	
C 	  4.674353	-2.064606	 2.608695	
C 	  5.939626	-1.464625	 2.548286	
C 	  6.090828	-0.086183	 2.434299	
H 	  2.529824	-1.769566	 2.590454	
H 	  4.602787	-3.143423	 2.716529	
H 	  6.825943	-2.096779	 2.593143	
H 	  7.072351	 0.372581	 2.402670	
C 	  3.638052	 0.072723	 2.401560	
C 	  4.930822	 0.684362	 2.369259	
N 	  4.768635	 2.083848	 2.291300	
C 	  2.670771	 1.134904	 2.283578	
C 	  3.394253	 2.368244	 2.237753	
C 	  2.720196	 3.586856	 2.127637	
C 	  1.333784	 3.556725	 2.037007	
C 	  0.616902	 2.346348	 2.034113	
C 	  1.293312	 1.130090	 2.171306	
H 	  3.267865	 4.523254	 2.100736	
H 	  0.794729	 4.503277	 1.966388	
H 	  0.745880	 0.181990	 2.179656	
C 	  7.852261	 4.915712	 2.040100	
C 	  6.804123	 5.102700	 2.945557	
C 	  5.781510	 4.166903	 3.037357	
C 	  5.810847	 3.036106	 2.209188	
C 	  6.858890	 2.841801	 1.299777	
C 	  7.880027	 3.782101	 1.225370	
H 	  6.798941	 5.984396	 3.586788	
H 	  4.971823	 4.304440	 3.753363	
H 	  6.862219	 1.969918	 0.646451	
H 	  8.702440	 3.641741	 0.524299	
N 	 11.885222	 8.886934	 1.841162	
C 	  8.917920	 5.920617	 1.952313	
C 	 10.117808	 5.729470	 2.640223	
C 	 11.108994	 6.702054	 2.606819	
C 	 10.899778	 7.875751	 1.864403	
C 	  9.709455	 8.052399	 1.139159	
C 	  8.722749	 7.077795	 1.193810	
H 	 10.271312	 4.816234	 3.215502	
H 	 12.035839	 6.562438	 3.161850	
H 	  9.569999	 8.948970	 0.536132	
H 	  7.793613	 7.214702	 0.640348	
C 	 15.968877	 7.923203	 1.995493	
C 	 15.093026	 7.133029	 1.246382	
C 	 13.739861	 7.439931	 1.196758	
C 	 13.257668	 8.548215	 1.910321	
C 	 14.130257	 9.331517	 2.682207	
C 	 15.482171	 9.018928	 2.713647	
H 	 15.476707	 6.278813	 0.688233	
H 	 13.057077	 6.834824	 0.602654	
H 	 13.744723	10.173864	 3.254072	
H 	 16.167017	 9.623532	 3.308906	
C 	 10.763039	12.937115	 1.728480	
C 	 11.890093	12.503388	 1.031571	
C 	 12.266820	11.165730	 1.060079	
C 	 11.504955	10.251040	 1.804661	
C 	 10.371656	10.683254	 2.510486	
C 	 10.006768	12.023870	 2.461358	
H 	 10.475194	13.984880	 1.701430	
H 	 12.479461	13.216277	 0.456386	
H 	 13.141357	10.826853	 0.507043	
H 	  9.790317	 9.974510	 3.097891	
H 	  9.125633	12.360863	 3.005452	
C 	 17.398900	 7.603086	 2.032697	
C 	 17.803503	 6.314489	 2.476269	
C 	 19.131913	 5.989597	 2.531966	
C 	 18.337201	 8.530933	 1.650268	
H 	 17.035822	 5.602325	 2.775625	
H 	 19.453805	 5.008611	 2.877416	
H 	 18.034408	 9.517097	 1.301265	
C 	 19.720318	 8.211891	 1.695973	
C 	 20.122422	 6.932988	 2.139375	
C 	 21.507181	 6.614972	 2.182188	
C 	 22.443331	 7.539926	 1.796653	
C 	 22.039713	 8.824950	 1.353933	
C 	 20.710815	 9.155342	 1.304456	
H 	 21.806370	 5.626107	 2.524208	
H 	 23.505242	 7.303830	 1.823604	
H 	 22.804102	 9.540132	 1.055547	
H 	 20.391284	10.139524	 0.966428	
C 	 -5.287070	 0.474641	 3.537011	
C 	 -6.654498	 0.382926	 3.774936	
C 	 -7.408536	-0.592595	 3.130913	
C 	 -6.795848	-1.514591	 2.289339	
H 	 -4.697590	 1.243941	 4.036730	
H 	 -7.132732	 1.074844	 4.464739	
H 	 -8.484202	-0.643757	 3.289089	
H 	 -7.399818	-2.279122	 1.799799	
C 	 -5.413731	-1.460021	 2.064877	
C 	 -4.663751	-0.418047	 2.657197	
N 	 -3.265416	-0.300930	 2.422459	
N 	 -4.784223	-2.409457	 1.210895	
C 	 -3.360489	-2.459281	 1.236736	
C 	 -2.610127	-1.460886	 1.909135	
C 	 -1.242631	-1.661577	 2.102798	
C 	 -0.596769	-2.749409	 1.518165	
C 	 -1.313447	-3.656881	 0.745240	
C 	 -2.692518	-3.519063	 0.611388	
H 	 -0.677935	-0.957743	 2.723716	
H 	  0.473675	-2.880758	 1.656527	
H 	 -0.803211	-4.490124	 0.264453	
H 	 -3.251691	-4.254660	 0.035009	
C 	 -6.305914	-4.002120	 0.236513	
C 	 -7.039166	-5.211555	 0.276856	
C 	 -6.835554	-6.112991	 1.289612	
C 	 -5.420986	-3.709258	 1.246292	
H 	 -6.457153	-3.301070	-0.585837	
H 	 -7.780454	-5.390789	-0.499620	
C 	 -5.139914	-4.650455	 2.289644	
C 	 -5.827759	-5.881912	 2.281018	
C 	 -5.481237	-6.871181	 3.242623	
C 	 -4.455109	-6.658642	 4.125631	
C 	 -3.792092	-5.408452	 4.159055	
C 	 -4.165318	-4.411764	 3.295307	
H 	 -6.035573	-7.811466	 3.248053	
H 	 -4.143048	-7.441484	 4.813678	
H 	 -2.989289	-5.246588	 4.876428	
H 	 -3.701500	-3.427333	 3.373397	
C 	 -8.902559	-7.261386	 2.072798	
C 	 -9.550820	-8.445932	 2.431249	
C 	 -8.978156	-9.677783	 2.122879	
C 	 -7.789362	-9.735380	 1.397448	
C 	 -7.133172	-8.559627	 1.044274	
C 	 -7.654971	-7.324270	 1.437897	
H 	 -10.499944	-8.400328	 2.965212	
H 	 -9.460890	-10.595864	 2.451764	
H 	 -7.362411	-10.699243	 1.126095	
H 	 -6.201822	-8.594807	 0.479692	
C 	 -10.749466	-3.490445	 2.780681	
C 	 -9.599385	-3.837386	 3.487690	
C 	 -8.994649	-5.073524	 3.273430	
C 	 -9.542126	-5.966928	 2.351057	
C 	 -10.706194	-5.624708	 1.655294	
C 	 -11.303699	-4.385409	 1.866833	
H 	 -11.215363	-2.521775	 2.942716	
H 	 -9.167745	-3.141215	 4.205573	
H 	 -8.090032	-5.339967	 3.819111	
H 	 -11.135217	-6.330464	 0.947534	
H 	 -12.203988	-4.116315	 1.318064	
