121
2(17-1(17-1(32-1)))(12-2(5-1(19-1)))
C 	 -0.698081	 2.161974	 1.635687	
C 	 -1.067861	 3.038747	 0.585026	
C 	 -2.370596	 3.002478	 0.110745	
C 	 -3.258321	 2.042939	 0.590443	
C 	 -2.765360	 1.096058	 1.499185	
H 	 -0.351786	 3.710941	 0.121139	
H 	 -2.689293	 3.711784	-0.655212	
H 	 -4.286545	 1.996494	 0.253846	
N 	 -1.537446	 1.169112	 2.043855	
C 	  0.331288	 0.457765	 3.959537	
C 	  0.873178	-0.655364	 4.592847	
C 	  2.181581	-1.048377	 4.324400	
C 	  2.969236	-0.298153	 3.459169	
H 	 -0.695191	 0.760904	 4.184608	
H 	  0.274243	-1.224894	 5.300765	
H 	  2.592971	-1.939435	 4.795745	
H 	  4.006521	-0.593332	 3.280295	
C 	  2.443797	 0.827065	 2.814818	
C 	  1.087084	 1.178587	 3.028364	
N 	  0.516795	 2.292035	 2.337990	
N 	  3.265782	 1.562156	 1.885724	
C 	  2.780516	 2.867819	 1.543259	
C 	  1.455984	 3.252498	 1.859390	
C 	  1.074560	 4.590363	 1.714380	
C 	  1.918647	 5.491079	 1.072559	
C 	  3.147703	 5.061423	 0.576733	
C 	  3.586410	 3.767232	 0.835841	
H 	  0.104283	 4.925419	 2.085076	
H 	  1.607322	 6.525327	 0.947400	
H 	  3.781318	 5.739344	 0.005503	
H 	  4.568409	 3.451263	 0.482593	
C 	  5.110703	 0.026306	 0.467992	
C 	  5.969177	-0.468255	-0.510343	
C 	  7.197381	 0.146706	-0.732475	
C 	  7.593617	 1.224722	 0.051923	
H 	  4.127870	-0.429153	 0.618571	
H 	  5.677064	-1.335079	-1.098841	
H 	  7.850125	-0.211847	-1.526806	
H 	  8.540266	 1.719653	-0.152368	
C 	  6.770813	 1.690534	 1.087485	
C 	  5.494579	 1.106494	 1.268490	
N 	  4.634486	 1.512074	 2.343885	
N 	  7.211761	 2.764744	 1.890199	
C 	  6.353896	 3.223846	 2.910354	
C 	  5.075091	 2.646822	 3.107500	
C 	  4.253879	 3.133680	 4.128552	
C 	  4.670630	 4.188606	 4.932605	
C 	  5.903545	 4.792343	 4.702219	
C 	  6.737739	 4.320280	 3.695360	
H 	  3.268726	 2.692422	 4.295176	
H 	  4.021676	 4.541375	 5.731465	
H 	  6.217839	 5.643216	 5.304072	
H 	  7.685686	 4.820617	 3.507877	
C 	  8.660515	 2.793358	 2.168449	
H 	  9.154776	 3.465958	 1.444002	
H 	  8.886289	 3.154417	 3.185613	
H 	  9.120293	 1.792188	 2.082601	
C 	 -5.563110	-7.218892	 2.295416	
C 	 -4.195583	-7.472960	 2.369032	
C 	 -3.273276	-6.442695	 2.594245	
C 	 -3.685272	-5.120278	 2.704145	
H 	 -6.274697	-8.030189	 2.155262	
H 	 -3.830171	-8.490497	 2.254772	
H 	 -2.213037	-6.681089	 2.683917	
H 	 -2.976124	-4.320418	 2.900129	
C 	 -6.002682	-5.905024	 2.397764	
C 	 -5.046296	-4.857797	 2.562546	
N 	 -5.716332	-3.610409	 2.615950	
C 	 -7.304812	-5.277238	 2.352230	
C 	 -7.096907	-3.862637	 2.460500	
C 	 -8.166034	-2.970882	 2.451644	
C 	 -9.445995	-3.500617	 2.338989	
C 	 -9.659441	-4.883379	 2.230952	
C 	 -8.591043	-5.782050	 2.237799	
H 	 -8.006735	-1.901434	 2.533651	
H 	 -10.304778	-2.828573	 2.338650	
H 	 -8.767333	-6.855393	 2.169336	
C 	 -3.574004	-0.099928	 1.810085	
C 	 -4.648185	-0.057414	 2.695570	
C 	 -5.394066	-1.207941	 2.946916	
C 	 -5.055147	-2.398753	 2.294775	
C 	 -4.011006	-2.425274	 1.354810	
C 	 -3.259698	-1.282382	 1.132060	
H 	 -4.896796	 0.876199	 3.199500	
H 	 -6.214608	-1.184538	 3.660491	
H 	 -3.791337	-3.342517	 0.807037	
H 	 -2.426503	-1.305957	 0.426569	
C 	 -12.769475	-6.666694	 1.061973	
C 	 -11.470687	-6.142726	 1.068153	
C 	 -11.033593	-5.393377	 2.161046	
C 	 -11.898715	-5.142383	 3.230449	
C 	 -13.181058	-5.682037	 3.229317	
C 	 -13.613599	-6.455035	 2.155372	
H 	 -10.801518	-6.341512	 0.224310	
H 	 -11.556420	-4.539964	 4.071373	
H 	 -13.844786	-5.510165	 4.073460	
H 	 -14.606609	-6.902191	 2.186905	
N 	 -12.349058	-8.184462	-0.849056	
C 	 -13.186287	-7.488278	-0.069584	
N 	 -14.532705	-7.717765	-0.451406	
C 	 -13.124582	-8.897004	-1.764962	
C 	 -14.510287	-8.618693	-1.523241	
C 	 -15.522311	-9.213973	-2.280507	
C 	 -15.125440	-10.083291	-3.281958	
C 	 -13.763195	-10.357491	-3.532938	
C 	 -12.751941	-9.777197	-2.787882	
H 	 -16.567862	-8.999829	-2.082723	
H 	 -15.879501	-10.574283	-3.897783	
H 	 -13.512203	-11.048344	-4.336415	
H 	 -11.698908	-9.983085	-2.972112	
C 	 -18.019581	-5.857428	 0.947509	
C 	 -17.806215	-7.212954	 1.196584	
C 	 -16.651409	-7.837359	 0.732969	
C 	 -15.710792	-7.082789	 0.021627	
C 	 -15.918895	-5.724360	-0.242016	
C 	 -17.080706	-5.118389	 0.229382	
H 	 -18.925899	-5.375766	 1.311752	
H 	 -18.543467	-7.787276	 1.755857	
H 	 -16.472651	-8.895676	 0.922137	
H 	 -15.182290	-5.156145	-0.810791	
H 	 -17.256304	-4.061300	 0.033097	
