141
2(17-1(10-1(20-1)))(7-2(13-1(32-1)))
C 	 -0.753184	 2.193914	 1.989216	
C 	 -1.278912	 3.362003	 1.383155	
C 	 -2.636471	 3.401820	 1.106351	
C 	 -3.446677	 2.306159	 1.404763	
C 	 -2.854191	 1.157997	 1.950959	
H 	 -0.633008	 4.197719	 1.124639	
H 	 -3.071125	 4.283290	 0.631579	
H 	 -4.511686	 2.334407	 1.199773	
N 	 -1.534996	 1.119643	 2.252342	
C 	  0.868757	-0.335667	 2.467207	
C 	  1.643419	-1.474230	 2.254245	
C 	  2.942695	-1.360037	 1.775532	
C 	  3.484868	-0.100097	 1.537541	
H 	 -0.151259	-0.445161	 2.855287	
H 	  1.218462	-2.453600	 2.461457	
H 	  3.549565	-2.246462	 1.596576	
H 	  4.502054	-0.019533	 1.153872	
C 	  2.736828	 1.054703	 1.784884	
C 	  1.381227	 0.933899	 2.197771	
N 	  0.602328	 2.108127	 2.376643	
N 	  3.339501	 2.332613	 1.589588	
C 	  2.664942	 3.439888	 2.171709	
C 	  1.317693	 3.314244	 2.592314	
C 	  0.705621	 4.370767	 3.273258	
C 	  1.358981	 5.592637	 3.404551	
C 	  2.637968	 5.755900	 2.882924	
C 	  3.301651	 4.679194	 2.300675	
H 	 -0.289285	 4.233669	 3.698708	
H 	  0.859844	 6.416566	 3.909250	
H 	  3.131135	 6.724655	 2.930662	
H 	  4.321119	 4.807428	 1.939508	
N 	  8.947093	 2.524712	 2.257702	
C 	  4.775706	 2.354775	 1.776324	
C 	  5.361846	 1.886602	 2.960369	
C 	  6.741001	 1.918148	 3.109113	
C 	  7.538511	 2.436112	 2.075956	
C 	  6.947728	 2.902841	 0.892530	
C 	  5.566259	 2.857562	 0.738887	
H 	  4.732132	 1.499995	 3.763974	
H 	  7.203904	 1.560436	 4.028069	
H 	  7.573757	 3.299796	 0.094498	
H 	  5.098198	 3.209976	-0.182546	
C 	 11.256079	-0.890685	 3.128322	
C 	 10.068181	-1.014481	 2.403784	
C 	  9.289994	 0.102269	 2.115317	
C 	  9.705624	 1.368925	 2.554165	
C 	 10.890437	 1.495015	 3.300623	
C 	 11.657881	 0.371295	 3.577058	
H 	  9.755326	-1.995760	 2.047348	
H 	  8.374307	-0.005989	 1.538670	
H 	 11.203659	 2.472463	 3.663410	
H 	 12.577864	 0.472716	 4.153886	
C 	 10.834010	 6.189104	 1.392752	
C 	 11.451636	 4.990395	 1.041277	
C 	 10.839264	 3.772536	 1.315516	
C 	  9.587956	 3.750158	 1.950875	
C 	  8.962500	 4.957842	 2.303317	
C 	  9.591129	 6.165686	 2.023812	
H 	 11.320895	 7.136520	 1.179302	
H 	 12.422745	 5.005349	 0.547456	
H 	 11.326519	 2.841922	 1.034513	
H 	  7.998469	 4.947252	 2.805582	
H 	  9.112434	 7.101760	 2.308750	
C 	 13.365600	-2.171750	 2.890073	
C 	 12.078232	-2.072072	 3.421869	
C 	 11.560052	-3.086519	 4.245740	
C 	 12.300099	-4.217095	 4.563016	
H 	 13.762155	-1.387241	 2.247829	
H 	 10.552582	-2.972938	 4.648141	
H 	 11.897904	-4.986666	 5.216594	
C 	 14.128311	-3.292673	 3.188482	
C 	 13.582932	-4.321547	 4.025310	
N 	 14.544693	-5.336912	 4.186264	
C 	 15.465284	-3.710288	 2.827067	
C 	 15.691163	-4.980258	 3.452602	
C 	 16.880032	-5.686151	 3.270381	
C 	 17.856627	-5.097521	 2.477913	
C 	 17.659043	-3.845167	 1.880031	
C 	 16.464770	-3.147274	 2.044074	
H 	 17.031622	-6.664286	 3.716989	
H 	 18.797499	-5.622412	 2.312232	
H 	 18.452384	-3.416791	 1.273111	
H 	 16.313704	-2.181563	 1.566114	
C 	 14.021835	-8.861246	 6.405053	
C 	 15.182956	-8.105227	 6.564129	
C 	 15.366577	-6.937706	 5.829886	
C 	 14.377231	-6.531987	 4.923346	
C 	 13.222353	-7.304878	 4.739173	
C 	 13.050504	-8.465443	 5.486730	
H 	 13.872551	-9.759126	 6.999268	
H 	 15.950049	-8.425702	 7.269837	
H 	 16.263211	-6.336136	 5.966658	
H 	 12.476515	-7.003227	 4.006588	
H 	 12.151957	-9.067037	 5.348017	
C 	 -5.000889	-0.134450	 1.962714	
C 	 -5.683336	-1.343237	 2.040405	
C 	 -4.996890	-2.527713	 2.329331	
C 	 -3.629281	-2.468758	 2.618971	
C 	 -2.949392	-1.260079	 2.542952	
C 	 -3.617152	-0.085729	 2.174159	
H 	 -5.560687	 0.770109	 1.722763	
H 	 -6.755620	-1.373596	 1.854443	
H 	 -3.090262	-3.371974	 2.899369	
H 	 -1.876441	-1.225177	 2.759810	
C 	 -7.894657	-9.824599	 1.453688	
C 	 -7.337660	-10.950614	 0.861992	
C 	 -6.063917	-10.894754	 0.292488	
C 	 -5.357928	-9.690909	 0.305756	
H 	 -8.891752	-9.880664	 1.885990	
H 	 -7.903175	-11.881108	 0.843613	
H 	 -4.369137	-9.638386	-0.148397	
C 	 -5.900193	-8.548507	 0.891739	
C 	 -7.172689	-8.620227	 1.487979	
C 	 -5.119569	-7.272392	 0.857206	
H 	 -4.109853	-7.443861	 1.301616	
C 	 -5.778665	-6.132420	 1.567101	
C 	 -7.032821	-6.277793	 2.192934	
C 	 -7.587630	-5.194697	 2.899560	
C 	 -6.924397	-3.976712	 2.942719	
C 	 -5.695530	-3.815894	 2.298459	
C 	 -5.133912	-4.901098	 1.618420	
H 	 -8.536646	-5.306784	 3.418605	
H 	 -7.362757	-3.141967	 3.490144	
H 	 -4.176320	-4.781502	 1.110591	
C 	 -11.592165	-7.674650	 3.770606	
C 	 -11.398799	-7.096782	 2.516771	
C 	 -10.123994	-7.039318	 1.960057	
C 	 -9.043233	-7.570107	 2.673647	
C 	 -9.231155	-8.162438	 3.927523	
C 	 -10.512895	-8.214421	 4.468257	
H 	 -12.589275	-7.705154	 4.205372	
H 	 -12.248659	-6.692019	 1.968866	
H 	 -9.963288	-6.584206	 0.984131	
H 	 -8.379805	-8.571370	 4.469197	
H 	 -10.672004	-8.679307	 5.440106	
N 	 -7.722821	-7.492378	 2.120543	
H 	 -4.931014	-6.991703	-0.207256	
C 	 -5.469109	-12.122415	-0.310305	
H 	 -6.239307	-12.816677	-0.675049	
H 	 -4.812935	-11.899005	-1.161656	
H 	 -4.865386	-12.666611	 0.432394	
